api/pglib_opf_case10000_goc__api.m
%%%%%%%%%%%%%%%%%%%%%%%%%%%%%%%%%%%%%%%%%%%%%%%%%%%%%%%%%%%%%%%%%%%%%%%%%%%
%%%%                                                                  %%%%%
%%%%    IEEE PES Power Grid Library - Optimal Power Flow - v20.04     %%%%%
%%%%          (https://github.com/power-grid-lib/pglib-opf)           %%%%%
%%%%             Benchmark Group - Active Power Increase              %%%%%
%%%%                         12 - July - 2020                         %%%%%
%%%%                                                                  %%%%%
%%%%%%%%%%%%%%%%%%%%%%%%%%%%%%%%%%%%%%%%%%%%%%%%%%%%%%%%%%%%%%%%%%%%%%%%%%%
function mpc = pglib_opf_case10000_goc__api
mpc.version = '2';
mpc.baseMVA = 100.0;

%% bus data
%	bus_i	type	Pd	Qd	Gs	Bs	area	Vm	Va	baseKV	zone	Vmax	Vmin
mpc.bus = [
	1	 1	 32.59	 8.36	 0.0	 0.0	 1	    1.00000	    0.00000	 115.0	 1	    1.10000	    0.90000;
	2	 1	 18.64	 4.12	 0.0	 0.0	 1	    1.00000	    0.00000	 115.0	 1	    1.10000	    0.90000;
	3	 1	 22.36	 0.95	 0.0	 0.0	 1	    1.00000	    0.00000	 115.0	 1	    1.10000	    0.90000;
	4	 1	 13.56	 1.48	 0.0	 0.0	 1	    1.00000	    0.00000	 115.0	 1	    1.10000	    0.90000;
	5	 1	 0.0	 0.0	 0.0	 0.0	 1	    1.00000	    0.00000	 115.0	 1	    1.10000	    0.90000;
	6	 1	 15.57	 3.25	 0.0	 0.0	 1	    1.00000	    0.00000	 115.0	 1	    1.10000	    0.90000;
	7	 1	 31.12	 2.53	 0.0	 0.0	 1	    1.00000	    0.00000	 115.0	 1	    1.10000	    0.90000;
	8	 1	 38.64	 1.12	 0.0	 0.0	 1	    1.00000	    0.00000	 115.0	 1	    1.10000	    0.90000;
	9	 1	 31.72	 6.33	 0.0	 5.04066867054	 1	    1.00000	    0.00000	 115.0	 1	    1.10000	    0.90000;
	10	 1	 60.83	 6.75	 0.0	 0.0	 1	    1.00000	    0.00000	 115.0	 1	    1.10000	    0.90000;
	11	 1	 17.28	 0.46	 0.0	 0.0	 1	    1.00000	    0.00000	 115.0	 1	    1.10000	    0.90000;
	12	 1	 0.0	 0.0	 0.0	 -5.0997424252	 1	    1.00000	    0.00000	 230.0	 1	    1.10000	    0.90000;
	13	 1	 0.0	 0.0	 0.0	 0.0	 1	    1.00000	    0.00000	 115.0	 1	    1.10000	    0.90000;
	14	 1	 34.56	 4.64	 0.0	 0.0	 1	    1.00000	    0.00000	 230.0	 1	    1.10000	    0.90000;
	15	 1	 0.0	 0.0	 0.0	 0.0	 1	    1.00000	    0.00000	 230.0	 1	    1.10000	    0.90000;
	16	 1	 0.0	 0.0	 0.0	 0.0	 1	    1.00000	    0.00000	 230.0	 1	    1.10000	    0.90000;
	17	 1	 0.0	 0.0	 0.0	 0.0	 1	    1.00000	    0.00000	 115.0	 1	    1.10000	    0.90000;
	18	 1	 51.49	 1.94	 0.0	 0.0	 1	    1.00000	    0.00000	 230.0	 1	    1.10000	    0.90000;
	19	 1	 0.0	 0.0	 0.0	 0.0	 1	    1.00000	    0.00000	 230.0	 1	    1.10000	    0.90000;
	20	 1	 0.0	 0.0	 0.0	 -32.4698696029	 1	    1.00000	    0.00000	 230.0	 1	    1.10000	    0.90000;
	21	 1	 91.60	 3.34	 0.0	 0.0	 1	    1.00000	    0.00000	 115.0	 1	    1.10000	    0.90000;
	22	 1	 0.0	 0.0	 0.0	 0.0	 1	    1.00000	    0.00000	 230.0	 1	    1.10000	    0.90000;
	23	 1	 0.0	 0.0	 0.0	 0.0	 1	    1.00000	    0.00000	 230.0	 1	    1.10000	    0.90000;
	24	 1	 36.38	 6.28	 0.0	 0.0	 1	    1.00000	    0.00000	 115.0	 1	    1.10000	    0.90000;
	25	 1	 37.34	 5.73	 0.0	 0.0	 1	    1.00000	    0.00000	 115.0	 1	    1.10000	    0.90000;
	26	 1	 15.10	 0.97	 0.0	 0.0	 1	    1.00000	    0.00000	 115.0	 1	    1.10000	    0.90000;
	27	 1	 0.0	 0.0	 0.0	 -177.87890999	 1	    1.00000	    0.00000	 500.0	 1	    1.10000	    0.90000;
	28	 1	 0.0	 0.0	 0.0	 0.0	 1	    1.00000	    0.00000	 230.0	 1	    1.10000	    0.90000;
	29	 1	 0.0	 0.0	 0.0	 0.0	 1	    1.00000	    0.00000	 115.0	 1	    1.10000	    0.90000;
	30	 1	 113.19	 16.53	 0.0	 0.0	 1	    1.00000	    0.00000	 500.0	 1	    1.10000	    0.90000;
	31	 1	 0.0	 0.0	 0.0	 0.0	 1	    1.00000	    0.00000	 230.0	 1	    1.10000	    0.90000;
	32	 1	 0.0	 0.0	 0.0	 0.0	 1	    1.00000	    0.00000	 115.0	 1	    1.10000	    0.90000;
	33	 1	 74.04	 7.71	 0.0	 0.0	 1	    1.00000	    0.00000	 115.0	 1	    1.10000	    0.90000;
	34	 1	 30.49	 8.56	 0.0	 0.0	 1	    1.00000	    0.00000	 115.0	 1	    1.10000	    0.90000;
	35	 1	 0.0	 0.0	 0.0	 0.0	 1	    1.00000	    0.00000	 115.0	 1	    1.10000	    0.90000;
	36	 1	 27.22	 3.52	 0.0	 0.0	 1	    1.00000	    0.00000	 115.0	 1	    1.10000	    0.90000;
	37	 1	 0.0	 0.0	 0.0	 0.0	 1	    1.00000	    0.00000	 230.0	 1	    1.10000	    0.90000;
	38	 1	 0.0	 0.0	 0.0	 0.0	 1	    1.00000	    0.00000	 115.0	 1	    1.10000	    0.90000;
	39	 1	 57.38	 13.27	 0.0	 0.0	 1	    1.00000	    0.00000	 230.0	 1	    1.10000	    0.90000;
	40	 1	 36.81	 3.09	 0.0	 0.0	 1	    1.00000	    0.00000	 115.0	 1	    1.10000	    0.90000;
	41	 1	 34.23	 5.19	 0.0	 0.0	 1	    1.00000	    0.00000	 115.0	 1	    1.10000	    0.90000;
	42	 1	 36.81	 1.12	 0.0	 0.0	 1	    1.00000	    0.00000	 115.0	 1	    1.10000	    0.90000;
	43	 1	 42.33	 7.51	 0.0	 0.0	 1	    1.00000	    0.00000	 115.0	 1	    1.10000	    0.90000;
	44	 1	 33.87	 4.06	 0.0	 0.0	 1	    1.00000	    0.00000	 115.0	 1	    1.10000	    0.90000;
	45	 1	 26.73	 2.92	 0.0	 0.0	 1	    1.00000	    0.00000	 115.0	 1	    1.10000	    0.90000;
	46	 1	 40.04	 4.08	 0.0	 0.0	 1	    1.00000	    0.00000	 115.0	 1	    1.10000	    0.90000;
	47	 1	 21.52	 1.60	 0.0	 -10.4246431476	 1	    1.00000	    0.00000	 115.0	 1	    1.10000	    0.90000;
	48	 1	 36.33	 2.97	 0.0	 0.0	 1	    1.00000	    0.00000	 115.0	 1	    1.10000	    0.90000;
	49	 1	 4.12	 0.66	 0.0	 -5.64253910574	 1	    1.00000	    0.00000	 115.0	 1	    1.10000	    0.90000;
	50	 1	 0.0	 0.0	 0.0	 0.0	 1	    1.00000	    0.00000	 115.0	 1	    1.10000	    0.90000;
	51	 1	 28.80	 3.52	 0.0	 0.0	 1	    1.00000	    0.00000	 115.0	 1	    1.10000	    0.90000;
	52	 1	 57.60	 7.82	 0.0	 0.0	 1	    1.00000	    0.00000	 115.0	 1	    1.10000	    0.90000;
	53	 1	 0.0	 0.0	 0.0	 0.0	 1	    1.00000	    0.00000	 115.0	 1	    1.10000	    0.90000;
	54	 1	 0.0	 0.0	 0.0	 0.0	 1	    1.00000	    0.00000	 115.0	 1	    1.10000	    0.90000;
	55	 1	 54.94	 3.12	 0.0	 0.0	 1	    1.00000	    0.00000	 115.0	 1	    1.10000	    0.90000;
	56	 1	 0.0	 0.0	 0.0	 0.0	 1	    1.00000	    0.00000	 115.0	 1	    1.10000	    0.90000;
	57	 1	 20.70	 1.93	 0.0	 0.0	 1	    1.00000	    0.00000	 115.0	 1	    1.10000	    0.90000;
	58	 1	 44.92	 11.89	 0.0	 0.0	 1	    1.00000	    0.00000	 115.0	 1	    1.10000	    0.90000;
	59	 1	 42.36	 2.16	 0.0	 0.0	 1	    1.00000	    0.00000	 115.0	 1	    1.10000	    0.90000;
	60	 1	 24.31	 5.84	 0.0	 0.0	 1	    1.00000	    0.00000	 115.0	 1	    1.10000	    0.90000;
	61	 1	 24.31	 1.83	 0.0	 0.0	 1	    1.00000	    0.00000	 115.0	 1	    1.10000	    0.90000;
	62	 1	 65.72	 5.29	 0.0	 0.0	 1	    1.00000	    0.00000	 115.0	 1	    1.10000	    0.90000;
	63	 1	 0.0	 0.0	 0.0	 0.0	 1	    1.00000	    0.00000	 230.0	 1	    1.10000	    0.90000;
	64	 1	 0.0	 0.0	 0.0	 0.0	 1	    1.00000	    0.00000	 115.0	 1	    1.10000	    0.90000;
	65	 1	 0.0	 0.0	 0.0	 0.0	 1	    1.00000	    0.00000	 230.0	 1	    1.10000	    0.90000;
	66	 1	 106.23	 8.65	 0.0	 0.0	 1	    1.00000	    0.00000	 230.0	 1	    1.10000	    0.90000;
	67	 1	 30.09	 1.50	 0.0	 0.0	 1	    1.00000	    0.00000	 115.0	 1	    1.10000	    0.90000;
	68	 1	 0.0	 0.0	 0.0	 0.0	 1	    1.00000	    0.00000	 115.0	 1	    1.10000	    0.90000;
	69	 1	 33.46	 3.50	 0.0	 0.0	 1	    1.00000	    0.00000	 115.0	 1	    1.10000	    0.90000;
	70	 1	 39.68	 6.02	 0.0	 0.0	 1	    1.00000	    0.00000	 115.0	 1	    1.10000	    0.90000;
	71	 1	 20.24	 2.42	 0.0	 0.0	 1	    1.00000	    0.00000	 115.0	 1	    1.10000	    0.90000;
	72	 1	 0.0	 0.0	 0.0	 -16.9568583013	 1	    1.00000	    0.00000	 230.0	 1	    1.10000	    0.90000;
	73	 1	 0.0	 0.0	 0.0	 0.0	 1	    1.00000	    0.00000	 115.0	 1	    1.10000	    0.90000;
	74	 1	 39.98	 0.80	 0.0	 0.0	 1	    1.00000	    0.00000	 230.0	 1	    1.10000	    0.90000;
	75	 1	 0.0	 0.0	 0.0	 0.0	 1	    1.00000	    0.00000	 230.0	 1	    1.10000	    0.90000;
	76	 1	 17.97	 1.45	 0.0	 0.0	 1	    1.00000	    0.00000	 115.0	 1	    1.10000	    0.90000;
	77	 1	 52.59	 0.31	 0.0	 0.0	 1	    1.00000	    0.00000	 115.0	 1	    1.10000	    0.90000;
	78	 1	 10.74	 0.84	 0.0	 0.0	 1	    1.00000	    0.00000	 115.0	 1	    1.10000	    0.90000;
	79	 1	 0.0	 0.0	 0.0	 0.0	 1	    1.00000	    0.00000	 230.0	 1	    1.10000	    0.90000;
	80	 1	 0.0	 0.0	 0.0	 0.0	 1	    1.00000	    0.00000	 115.0	 1	    1.10000	    0.90000;
	81	 1	 0.0	 0.0	 0.0	 0.0	 1	    1.00000	    0.00000	 230.0	 1	    1.10000	    0.90000;
	82	 1	 161.31	 6.42	 0.0	 0.0	 1	    1.00000	    0.00000	 230.0	 1	    1.10000	    0.90000;
	83	 1	 0.0	 0.0	 0.0	 0.0	 1	    1.00000	    0.00000	 115.0	 1	    1.10000	    0.90000;
	84	 1	 84.59	 13.75	 0.0	 0.0	 1	    1.00000	    0.00000	 115.0	 1	    1.10000	    0.90000;
	85	 1	 0.0	 0.0	 0.0	 0.0	 1	    1.00000	    0.00000	 115.0	 1	    1.10000	    0.90000;
	86	 1	 8.92	 0.98	 0.0	 0.0	 1	    1.00000	    0.00000	 115.0	 1	    1.10000	    0.90000;
	87	 1	 0.0	 0.0	 0.0	 0.0	 1	    1.00000	    0.00000	 115.0	 1	    1.10000	    0.90000;
	88	 1	 88.63	 30.62	 0.0	 0.0	 1	    1.00000	    0.00000	 115.0	 1	    1.10000	    0.90000;
	89	 1	 0.0	 0.0	 0.0	 0.0	 1	    1.00000	    0.00000	 115.0	 1	    1.10000	    0.90000;
	90	 1	 65.50	 10.28	 0.0	 0.0	 1	    1.00000	    0.00000	 115.0	 1	    1.10000	    0.90000;
	91	 1	 0.0	 0.0	 0.0	 -136.504392464	 1	    1.00000	    0.00000	 500.0	 1	    1.10000	    0.90000;
	92	 1	 0.0	 0.0	 0.0	 0.0	 1	    1.00000	    0.00000	 230.0	 1	    1.10000	    0.90000;
	93	 1	 0.0	 0.0	 0.0	 0.0	 1	    1.00000	    0.00000	 115.0	 1	    1.10000	    0.90000;
	94	 1	 113.92	 17.00	 0.0	 0.0	 1	    1.00000	    0.00000	 500.0	 1	    1.10000	    0.90000;
	95	 1	 0.0	 0.0	 0.0	 0.0	 1	    1.00000	    0.00000	 500.0	 1	    1.10000	    0.90000;
	96	 1	 14.75	 2.73	 0.0	 0.0	 1	    1.00000	    0.00000	 115.0	 1	    1.10000	    0.90000;
	97	 1	 21.60	 2.94	 0.0	 0.0	 1	    1.00000	    0.00000	 115.0	 1	    1.10000	    0.90000;
	98	 1	 47.55	 8.12	 0.0	 0.0	 1	    1.00000	    0.00000	 115.0	 1	    1.10000	    0.90000;
	99	 1	 0.0	 0.0	 0.0	 0.0	 1	    1.00000	    0.00000	 115.0	 1	    1.10000	    0.90000;
	100	 1	 39.35	 4.37	 0.0	 0.0	 1	    1.00000	    0.00000	 115.0	 1	    1.10000	    0.90000;
	101	 1	 28.18	 1.78	 0.0	 0.0	 1	    1.00000	    0.00000	 115.0	 1	    1.10000	    0.90000;
	102	 1	 0.0	 0.0	 0.0	 0.0	 1	    1.00000	    0.00000	 115.0	 1	    1.10000	    0.90000;
	103	 1	 52.97	 3.58	 0.0	 0.0	 1	    1.00000	    0.00000	 115.0	 1	    1.10000	    0.90000;
	104	 1	 97.53	 4.76	 0.0	 0.0	 1	    1.00000	    0.00000	 115.0	 1	    1.10000	    0.90000;
	105	 1	 0.0	 0.0	 0.0	 0.0	 1	    1.00000	    0.00000	 115.0	 1	    1.10000	    0.90000;
	106	 1	 116.96	 28.70	 0.0	 0.0	 1	    1.00000	    0.00000	 115.0	 1	    1.10000	    0.90000;
	107	 1	 0.0	 0.0	 0.0	 0.0	 1	    1.00000	    0.00000	 230.0	 1	    1.10000	    0.90000;
	108	 1	 0.0	 0.0	 0.0	 0.0	 1	    1.00000	    0.00000	 115.0	 1	    1.10000	    0.90000;
	109	 1	 147.37	 8.48	 0.0	 0.0	 1	    1.00000	    0.00000	 230.0	 1	    1.10000	    0.90000;
	110	 1	 0.0	 0.0	 0.0	 0.0	 1	    1.00000	    0.00000	 230.0	 1	    1.10000	    0.90000;
	111	 1	 21.08	 2.55	 0.0	 0.0	 1	    1.00000	    0.00000	 115.0	 1	    1.10000	    0.90000;
	112	 1	 48.75	 8.71	 0.0	 0.0	 1	    1.00000	    0.00000	 115.0	 1	    1.10000	    0.90000;
	113	 1	 154.22	 21.30	 0.0	 0.0	 1	    1.00000	    0.00000	 115.0	 1	    1.10000	    0.90000;
	114	 1	 152.80	 25.10	 0.0	 0.0	 1	    1.00000	    0.00000	 115.0	 1	    1.10000	    0.90000;
	115	 1	 0.0	 0.0	 0.0	 0.0	 1	    1.00000	    0.00000	 230.0	 1	    1.10000	    0.90000;
	116	 1	 119.37	 11.31	 0.0	 0.0	 1	    1.00000	    0.00000	 115.0	 1	    1.10000	    0.90000;
	117	 1	 0.0	 0.0	 0.0	 0.0	 1	    1.00000	    0.00000	 230.0	 1	    1.10000	    0.90000;
	118	 1	 0.0	 0.0	 0.0	 0.0	 1	    1.00000	    0.00000	 230.0	 1	    1.10000	    0.90000;
	119	 1	 35.12	 7.50	 0.0	 0.0	 1	    1.00000	    0.00000	 115.0	 1	    1.10000	    0.90000;
	120	 1	 0.0	 0.0	 0.0	 0.0	 1	    1.00000	    0.00000	 115.0	 1	    1.10000	    0.90000;
	121	 1	 54.02	 10.58	 0.0	 0.0	 1	    1.00000	    0.00000	 115.0	 1	    1.10000	    0.90000;
	122	 1	 14.83	 1.07	 0.0	 0.0	 1	    1.00000	    0.00000	 115.0	 1	    1.10000	    0.90000;
	123	 1	 14.51	 1.94	 0.0	 0.0	 1	    1.00000	    0.00000	 115.0	 1	    1.10000	    0.90000;
	124	 1	 62.72	 7.31	 0.0	 0.0	 1	    1.00000	    0.00000	 115.0	 1	    1.10000	    0.90000;
	125	 1	 101.44	 16.00	 0.0	 0.0	 1	    1.00000	    0.00000	 115.0	 1	    1.10000	    0.90000;
	126	 1	 57.34	 9.40	 0.0	 0.0	 1	    1.00000	    0.00000	 115.0	 1	    1.10000	    0.90000;
	127	 1	 27.01	 1.65	 0.0	 0.0	 1	    1.00000	    0.00000	 115.0	 1	    1.10000	    0.90000;
	128	 1	 0.0	 0.0	 0.0	 0.0	 1	    1.00000	    0.00000	 115.0	 1	    1.10000	    0.90000;
	129	 1	 16.98	 8.55	 0.0	 0.0	 1	    1.00000	    0.00000	 115.0	 1	    1.10000	    0.90000;
	130	 1	 0.0	 0.0	 0.0	 0.0	 1	    1.00000	    0.00000	 230.0	 1	    1.10000	    0.90000;
	131	 1	 107.40	 10.68	 0.0	 0.0	 1	    1.00000	    0.00000	 115.0	 1	    1.10000	    0.90000;
	132	 1	 0.0	 0.0	 0.0	 0.0	 1	    1.00000	    0.00000	 230.0	 1	    1.10000	    0.90000;
	133	 1	 0.0	 0.0	 0.0	 0.0	 1	    1.00000	    0.00000	 230.0	 1	    1.10000	    0.90000;
	134	 1	 0.0	 0.0	 0.0	 0.0	 1	    1.00000	    0.00000	 115.0	 1	    1.10000	    0.90000;
	135	 1	 68.40	 5.45	 0.0	 0.0	 1	    1.00000	    0.00000	 230.0	 1	    1.10000	    0.90000;
	136	 1	 34.12	 3.49	 0.0	 0.0	 1	    1.00000	    0.00000	 115.0	 1	    1.10000	    0.90000;
	137	 1	 32.33	 4.74	 0.0	 0.0	 1	    1.00000	    0.00000	 115.0	 1	    1.10000	    0.90000;
	138	 1	 0.0	 0.0	 0.0	 0.0	 1	    1.00000	    0.00000	 115.0	 1	    1.10000	    0.90000;
	139	 1	 31.74	 4.54	 0.0	 0.0	 1	    1.00000	    0.00000	 115.0	 1	    1.10000	    0.90000;
	140	 1	 24.64	 6.38	 0.0	 0.0	 1	    1.00000	    0.00000	 115.0	 1	    1.10000	    0.90000;
	141	 1	 26.89	 8.62	 0.0	 0.0	 1	    1.00000	    0.00000	 115.0	 1	    1.10000	    0.90000;
	142	 1	 12.43	 4.23	 0.0	 0.0	 1	    1.00000	    0.00000	 115.0	 1	    1.10000	    0.90000;
	143	 1	 31.47	 2.31	 0.0	 0.0	 1	    1.00000	    0.00000	 115.0	 1	    1.10000	    0.90000;
	144	 1	 0.0	 0.0	 0.0	 0.0	 1	    1.00000	    0.00000	 115.0	 1	    1.10000	    0.90000;
	145	 1	 34.53	 1.31	 0.0	 0.0	 1	    1.00000	    0.00000	 115.0	 1	    1.10000	    0.90000;
	146	 1	 0.0	 0.0	 0.0	 0.0	 1	    1.00000	    0.00000	 115.0	 1	    1.10000	    0.90000;
	147	 1	 16.77	 0.98	 0.0	 0.0	 1	    1.00000	    0.00000	 115.0	 1	    1.10000	    0.90000;
	148	 1	 42.72	 6.76	 0.0	 0.0	 1	    1.00000	    0.00000	 115.0	 1	    1.10000	    0.90000;
	149	 1	 0.0	 0.0	 0.0	 0.0	 1	    1.00000	    0.00000	 115.0	 1	    1.10000	    0.90000;
	150	 1	 8.08	 0.31	 0.0	 0.0	 1	    1.00000	    0.00000	 115.0	 1	    1.10000	    0.90000;
	151	 1	 26.38	 2.54	 0.0	 0.0	 1	    1.00000	    0.00000	 115.0	 1	    1.10000	    0.90000;
	152	 1	 28.68	 8.10	 0.0	 0.0	 1	    1.00000	    0.00000	 115.0	 1	    1.10000	    0.90000;
	153	 1	 17.03	 1.82	 0.0	 0.0	 1	    1.00000	    0.00000	 115.0	 1	    1.10000	    0.90000;
	154	 1	 11.75	 2.09	 0.0	 0.0	 1	    1.00000	    0.00000	 115.0	 1	    1.10000	    0.90000;
	155	 1	 17.91	 3.41	 0.0	 0.0	 1	    1.00000	    0.00000	 115.0	 1	    1.10000	    0.90000;
	156	 1	 0.0	 0.0	 0.0	 0.0	 1	    1.00000	    0.00000	 115.0	 1	    1.10000	    0.90000;
	157	 1	 15.25	 1.10	 0.0	 0.0	 1	    1.00000	    0.00000	 115.0	 1	    1.10000	    0.90000;
	158	 1	 12.79	 2.40	 0.0	 0.0	 1	    1.00000	    0.00000	 115.0	 1	    1.10000	    0.90000;
	159	 1	 26.78	 4.95	 0.0	 0.0	 1	    1.00000	    0.00000	 115.0	 1	    1.10000	    0.90000;
	160	 1	 0.0	 0.0	 0.0	 0.0	 1	    1.00000	    0.00000	 230.0	 1	    1.10000	    0.90000;
	161	 1	 0.0	 0.0	 0.0	 0.0	 1	    1.00000	    0.00000	 115.0	 1	    1.10000	    0.90000;
	162	 1	 52.95	 7.43	 0.0	 0.0	 1	    1.00000	    0.00000	 230.0	 1	    1.10000	    0.90000;
	163	 1	 0.0	 0.0	 0.0	 0.0	 1	    1.00000	    0.00000	 230.0	 1	    1.10000	    0.90000;
	164	 1	 25.84	 3.21	 0.0	 0.0	 1	    1.00000	    0.00000	 115.0	 1	    1.10000	    0.90000;
	165	 1	 41.93	 2.37	 0.0	 0.0	 1	    1.00000	    0.00000	 115.0	 1	    1.10000	    0.90000;
	166	 1	 0.0	 0.0	 0.0	 0.0	 1	    1.00000	    0.00000	 115.0	 1	    1.10000	    0.90000;
	167	 1	 0.0	 0.0	 0.0	 0.0	 1	    1.00000	    0.00000	 115.0	 1	    1.10000	    0.90000;
	168	 1	 41.13	 6.36	 0.0	 0.0	 1	    1.00000	    0.00000	 115.0	 1	    1.10000	    0.90000;
	169	 1	 41.13	 5.79	 0.0	 0.0	 1	    1.00000	    0.00000	 115.0	 1	    1.10000	    0.90000;
	170	 1	 0.0	 0.0	 0.0	 0.0	 1	    1.00000	    0.00000	 115.0	 1	    1.10000	    0.90000;
	171	 1	 41.66	 6.12	 0.0	 0.0	 1	    1.00000	    0.00000	 115.0	 1	    1.10000	    0.90000;
	172	 1	 0.0	 0.0	 0.0	 0.0	 1	    1.00000	    0.00000	 230.0	 1	    1.10000	    0.90000;
	173	 1	 0.0	 0.0	 0.0	 0.0	 1	    1.00000	    0.00000	 115.0	 1	    1.10000	    0.90000;
	174	 1	 41.13	 6.27	 0.0	 -6.67443540647	 1	    1.00000	    0.00000	 230.0	 1	    1.10000	    0.90000;
	175	 1	 42.39	 5.34	 0.0	 0.0	 1	    1.00000	    0.00000	 115.0	 1	    1.10000	    0.90000;
	176	 1	 0.0	 0.0	 0.0	 0.0	 1	    1.00000	    0.00000	 115.0	 1	    1.10000	    0.90000;
	177	 1	 16.53	 2.00	 0.0	 0.0	 1	    1.00000	    0.00000	 115.0	 1	    1.10000	    0.90000;
	178	 1	 0.0	 0.0	 0.0	 0.0	 1	    1.00000	    0.00000	 230.0	 1	    1.10000	    0.90000;
	179	 1	 46.12	 4.29	 0.0	 0.0	 1	    1.00000	    0.00000	 115.0	 1	    1.10000	    0.90000;
	180	 1	 0.0	 0.0	 0.0	 0.0	 1	    1.00000	    0.00000	 230.0	 1	    1.10000	    0.90000;
	181	 1	 0.0	 0.0	 0.0	 0.0	 1	    1.00000	    0.00000	 230.0	 1	    1.10000	    0.90000;
	182	 1	 20.10	 0.53	 0.0	 0.0	 1	    1.00000	    0.00000	 115.0	 1	    1.10000	    0.90000;
	183	 1	 0.0	 0.0	 0.0	 8.9500529104	 1	    1.00000	    0.00000	 115.0	 1	    1.10000	    0.90000;
	184	 1	 12.60	 2.83	 0.0	 0.0	 1	    1.00000	    0.00000	 115.0	 1	    1.10000	    0.90000;
	185	 1	 29.63	 5.90	 0.0	 0.0	 1	    1.00000	    0.00000	 115.0	 1	    1.10000	    0.90000;
	186	 1	 29.63	 7.02	 0.0	 0.0	 1	    1.00000	    0.00000	 115.0	 1	    1.10000	    0.90000;
	187	 1	 0.0	 0.0	 0.0	 0.0	 1	    1.00000	    0.00000	 115.0	 1	    1.10000	    0.90000;
	188	 1	 41.14	 7.99	 0.0	 0.0	 1	    1.00000	    0.00000	 115.0	 1	    1.10000	    0.90000;
	189	 1	 25.91	 0.83	 0.0	 0.0	 1	    1.00000	    0.00000	 115.0	 1	    1.10000	    0.90000;
	190	 1	 11.97	 1.38	 0.0	 0.0	 1	    1.00000	    0.00000	 115.0	 1	    1.10000	    0.90000;
	191	 1	 13.28	 3.12	 0.0	 0.0	 1	    1.00000	    0.00000	 115.0	 1	    1.10000	    0.90000;
	192	 1	 37.61	 3.11	 0.0	 0.0	 1	    1.00000	    0.00000	 115.0	 1	    1.10000	    0.90000;
	193	 1	 36.56	 4.75	 0.0	 -14.9365168743	 1	    1.00000	    0.00000	 115.0	 1	    1.10000	    0.90000;
	194	 1	 0.0	 0.0	 0.0	 127.5611999	 1	    1.00000	    0.00000	 230.0	 1	    1.10000	    0.90000;
	195	 1	 116.00	 17.71	 0.0	 0.0	 1	    1.00000	    0.00000	 115.0	 1	    1.10000	    0.90000;
	196	 1	 0.0	 0.0	 0.0	 0.0	 1	    1.00000	    0.00000	 230.0	 1	    1.10000	    0.90000;
	197	 1	 39.39	 3.79	 0.0	 0.0	 1	    1.00000	    0.00000	 115.0	 1	    1.10000	    0.90000;
	198	 1	 0.0	 0.0	 0.0	 0.0	 1	    1.00000	    0.00000	 230.0	 1	    1.10000	    0.90000;
	199	 1	 0.0	 0.0	 0.0	 0.0	 1	    1.00000	    0.00000	 115.0	 1	    1.10000	    0.90000;
	200	 1	 72.63	 12.13	 0.0	 0.0	 1	    1.00000	    0.00000	 230.0	 1	    1.10000	    0.90000;
...
];

%% generator data
%	bus	Pg	Qg	Qmax	Qmin	Vg	mBase	status	Pmax	Pmin
mpc.gen = [
	2275	 125.45575	 0.0	 118.0	 -118.0	 1.0	 95.5	 1	 236	 14.9115; % NG
	2276	 172.89475	 0.0	 163.0	 -163.0	 1.0	 95.5	 1	 326	 19.7895; % NG
	2277	 34.94625	 8.305	 48.61	 -32.0	 1.0	 95.5	 1	 64	 5.8925; % NG
	2278	 37.83075	 6.805	 48.61	 -35.0	 1.0	 95.5	 1	 70	 5.6615; % NG
	2279	 52.63875	 0.805	 48.61	 -47.0	 1.0	 95.5	 1	 94	 11.2775; % NG
	2280	 125.78725	 0.0	 121.0	 -121.0	 1.0	 95.5	 1	 242	 9.5745; % NG
	2285	 110.10825	 0.0	 96.0	 -96.0	 1.0	 201.0	 1	 191	 29.2165; % NG
	2289	 10.1705	 0.0	 10.0	 -10.0	 1.0	 7.6	 1	 19	 1.341; % NG
	2289	 29.37675	 0.0	 29.0	 -29.0	 1.0	 4.7	 1	 58	 0.7535; % PEL
	2290	 13.6975	 0.0	 14.0	 -14.0	 1.0	 1.73	 1	 27	 0.395; % PEL
	2290	 25.08425	 0.0	 25.0	 -25.0	 1.0	 1.73	 1	 50	 0.1685; % PEL
	2291	 7.14575	 0.0	 7.0	 -7.0	 1.0	 1.73	 1	 14	 0.2915; % PEL
	2291	 10.21225	 0.0	 10.0	 -10.0	 1.0	 1.73	 1	 20	 0.4245; % PEL
	2292	 2.079	 0.0	 2.0	 -2.0	 1.0	 1.73	 1	 4	 0.158; % PEL
	2293	 3.13625	 0.0	 3.0	 -3.0	 1.0	 1.73	 1	 6	 0.2725; % PEL
	2294	 9.10675	 0.0	 9.0	 -9.0	 1.0	 1.6	 1	 18	 0.2135; % PEL
	2294	 10.60725	 0.0	 11.0	 -11.0	 1.0	 1.6	 1	 21	 0.2145; % PEL
	2295	 6.61375	 0.0	 7.0	 -7.0	 1.0	 1.5	 1	 13	 0.2275; % PEL
	2295	 6.54025	 0.0	 7.0	 -7.0	 1.0	 1.4	 1	 13	 0.0805; % PEL
	2296	 0.5595	 0.0	 1.2	 -1.2	 1.0	 0.5	 1	 1	 0.119; % PEL
	2302	 157.8005	 6.423	 149.646	 -136.8	 1.0	 294.0	 1	 260	 55.601; % NG
	2303	 167.42875	 1.823	 149.646	 -146.0	 1.0	 294.0	 1	 291	 43.8575; % NG
	2304	 99.79175	 11.823	 149.646	 -126.0	 1.0	 294.0	 1	 163	 36.5835; % NG
	2310	 0.0	 0.0	 290.038	 -75.933	 1.0	 622.4	 0	 67	 274.004; % NG
	2315	 130.08525	 0.0	 118.0	 -118.0	 1.0	 112.5	 1	 235	 25.1705; % COW
	2316	 99.63075	 0.0	 91.0	 -91.0	 1.0	 112.5	 1	 181	 18.2615; % COW
	2317	 168.36875	 0.0	 157.0	 -157.0	 1.0	 112.5	 1	 313	 23.7375; % COW
	2318	 122.2735	 0.0	 119.0	 -119.0	 1.0	 112.5	 1	 237	 7.547; % NG
	2323	 116.79375	 0.0	 111.0	 -111.0	 1.0	 161.0	 1	 221	 12.5875; % NG
	2327	 46.9105	 0.0	 37.0	 -37.0	 1.0	 101.2	 1	 74	 19.821; % NG
	2332	 52.06275	 -4.9415	 93.317	 -103.2	 1.0	 183.33	 1	 77	 27.1255; % NG
	2333	 80.30725	 0.0	 123.6	 -123.6	 1.0	 183.33	 1	 118	 42.6145; % NG
	2334	 128.46075	 0.0	 121.2	 -121.2	 1.0	 183.33	 1	 222	 34.9215; % NG
	2340	 0.0	 0.0	 748.0	 -748.0	 1.0	 722.0	 0	 1496	 93.8895; % COW
	2341	 0.0	 0.0	 336.452	 -122.0	 1.0	 722.0	 0	 243	 147.718; % COW
	2346	 74.91975	 0.0	 72.0	 -72.0	 1.0	 89.4	 1	 143	 6.8395; % NG
	2347	 76.23225	 0.0	 71.0	 -71.0	 1.0	 89.4	 1	 142	 10.4645; % NG
	2348	 70.08875	 0.0	 66.0	 -66.0	 1.0	 89.4	 1	 131	 9.1775; % COW
	2349	 105.2195	 0.0	 96.0	 -96.0	 1.0	 89.4	 1	 192	 18.439; % NG
	2350	 111.3935	 0.0	 105.0	 -105.0	 1.0	 89.4	 1	 210	 12.787; % COW
	2351	 108.32125	 0.0	 98.0	 -98.0	 1.0	 89.4	 1	 196	 20.6425; % NG
	2352	 2.0285	 0.0	 2.0	 -2.0	 1.0	 0.43	 1	 4	 0.057; % PEL
	2353	 2.0435	 0.0	 2.0	 -2.0	 1.0	 0.43	 1	 4	 0.087; % PEL
	2353	 0.55275	 0.0	 1.2	 -1.2	 1.0	 0.43	 1	 1	 0.1055; % PEL
	2358	 23.0885	 0.0	 23.0	 -23.0	 1.0	 15.77	 1	 45	 1.177; % NG
	2358	 28.96925	 0.0	 27.0	 -27.0	 1.0	 15.77	 1	 54	 3.9385; % PEL
	2359	 55.83825	 0.0	 55.0	 -55.0	 1.0	 15.77	 1	 109	 2.6765; % NG
	2360	 27.18375	 0.0	 26.0	 -26.0	 1.0	 15.77	 1	 52	 2.3675; % NG
	2364	 69.36825	 13.428	 90.856	 -64.0	 1.0	 178.5	 1	 128	 10.7365; % NG
	2365	 121.8845	 0.0	 110.0	 -110.0	 1.0	 178.5	 1	 219	 24.769; % COW
	2366	 155.72275	 0.0	 142.0	 -142.0	 1.0	 178.5	 1	 283	 28.4455; % NG
	2371	 177.2925	 0.0	 168.0	 -168.0	 1.0	 243.4	 1	 335	 19.585; % COW
	2372	 143.6815	 0.0	 124.0	 -124.0	 1.0	 243.4	 1	 248	 39.363; % NG
	2373	 193.219	 0.0	 165.0	 -165.0	 1.0	 243.4	 1	 330	 56.438; % NG
	2376	 66.16475	 0.0	 66.0	 -66.0	 1.0	 3.45	 1	 132	 0.3295; % NG
	2376	 74.3715	 0.0	 74.0	 -74.0	 1.0	 3.45	 1	 148	 0.743; % NG
	2376	 40.8935	 0.0	 55.2	 -55.2	 1.0	 5.0	 1	 81	 0.787; % NG
	2376	 82.79675	 0.0	 81.0	 -81.0	 1.0	 48.0	 1	 161	 4.5935; % NG
	2379	 209.34725	 0.0	 206.0	 -206.0	 1.0	 39.6	 1	 412	 6.6945; % NG
	2384	 221.40275	 0.0	 214.0	 -214.0	 1.0	 130.0	 1	 428	 14.8055; % COW
	2385	 75.44375	 0.0	 67.0	 -67.0	 1.0	 130.0	 1	 133	 17.8875; % NG
	2390	 66.49075	 11.1765	 79.353	 -57.0	 1.0	 155.9	 1	 113	 19.9815; % NG
	2391	 77.97225	 6.6765	 79.353	 -66.0	 1.0	 155.9	 1	 131	 24.9445; % NG
	2392	 90.2575	 0.0	 85.0	 -85.0	 1.0	 155.9	 1	 170	 10.515; % NG
	2397	 0.0	 0.0	 335.986	 -147.0	 1.0	 721.0	 0	 293	 38.571; % COW
	2401	 59.2105	 0.0	 59.0	 -59.0	 1.0	 3.2	 1	 118	 0.421; % PEL
	2401	 30.84925	 0.0	 31.0	 -31.0	 1.0	 3.2	 1	 61	 0.6985; % PEL
	2401	 48.3095	 0.0	 48.0	 -48.0	 1.0	 3.2	 1	 96	 0.619; % NG
	2401	 82.8815	 0.0	 81.0	 -81.0	 1.0	 33.0	 1	 162	 3.763; % NG
	2401	 55.98625	 0.0	 54.0	 -54.0	 1.0	 33.0	 1	 108	 3.9725; % PEL
	2404	 81.308	 0.0	 78.0	 -78.0	 1.0	 76.25	 1	 155	 7.616; % NG
	2404	 47.52125	 0.0	 42.0	 -42.0	 1.0	 76.25	 1	 84	 11.0425; % PEL
	2409	 43.915	 0.0	 43.0	 -43.0	 1.0	 28.0	 1	 86	 1.83; % NG
	2409	 43.557	 0.0	 43.0	 -43.0	 1.0	 28.0	 1	 85	 2.114; % NG
	2410	 89.13	 0.0	 87.0	 -87.0	 1.0	 28.0	 1	 174	 4.26; % NG
	2411	 37.4025	 0.0	 35.0	 -35.0	 1.0	 28.0	 1	 70	 4.805; % NG
	2411	 36.42325	 0.0	 36.0	 -36.0	 1.0	 28.0	 1	 71	 1.8465; % NG
	2412	 46.01725	 0.0	 45.0	 -45.0	 1.0	 28.0	 1	 90	 2.0345; % PEL
	2416	 25.1955	 0.0	 22.0	 -22.0	 1.0	 28.3	 1	 44	 6.391; % NG
	2416	 11.53075	 2.2025	 14.405	 -10.0	 1.0	 28.3	 1	 19	 4.0615; % PEL
	2417	 33.506	 0.0	 30.0	 -30.0	 1.0	 28.3	 1	 60	 7.012; % NG
	2417	 11.3355	 1.7025	 14.405	 -11.0	 1.0	 28.3	 1	 21	 1.671; % NG
	2418	 21.4115	 0.0	 19.0	 -19.0	 1.0	 28.3	 1	 38	 4.823; % NG
	2418	 39.3075	 0.0	 38.0	 -38.0	 1.0	 28.3	 1	 75	 3.615; % NG
	2423	 82.6845	 0.0	 81.0	 -81.0	 1.0	 61.0	 1	 161	 4.369; % NG
	2424	 73.0415	 0.0	 72.0	 -72.0	 1.0	 24.0	 1	 144	 2.083; % NG
	2428	 146.0485	 4.2855	 126.571	 -118.0	 1.0	 248.67	 1	 236	 56.097; % NG
	2429	 147.243	 0.7855	 126.571	 -125.0	 1.0	 248.67	 1	 250	 44.486; % NG
	2430	 128.855	 9.2855	 126.571	 -108.0	 1.0	 248.67	 1	 216	 41.71; % NG
	2433	 91.08125	 0.0	 88.0	 -88.0	 1.0	 89.4	 1	 176	 6.1625; % NG
	2433	 87.316	 0.0	 84.0	 -84.0	 1.0	 89.4	 1	 167	 7.632; % NG
	2433	 42.98	 4.2525	 45.505	 -37.0	 1.0	 89.4	 1	 74	 11.96; % NG
	2433	 100.08	 0.0	 91.0	 -91.0	 1.0	 89.4	 1	 182	 18.16; % NG
	2433	 45.6825	 1.2525	 45.505	 -43.0	 1.0	 89.4	 1	 86	 5.365; % NG
	2441	 99.3315	 0.0	 86.0	 -86.0	 1.0	 168.33	 1	 172	 26.663; % NG
	2442	 64.16625	 9.841	 85.682	 -66.0	 1.0	 168.33	 1	 104	 24.3325; % NG
	2443	 90.85225	 6.841	 85.682	 -72.0	 1.0	 168.33	 1	 144	 37.7045; % NG
	2449	 200.19175	 1.044	 169.088	 -167.0	 1.0	 317.35	 1	 333	 67.3835; % NG
	2450	 207.42975	 0.0	 179.0	 -179.0	 1.0	 317.35	 1	 358	 56.8595; % NG
	2455	 224.802	 0.0	 212.0	 -212.0	 1.0	 131.8	 1	 423	 26.604; % COW
	2456	 206.8055	 0.0	 192.0	 -192.0	 1.0	 131.8	 1	 384	 29.611; % NG
	2459	 7.8535	 0.0	 49.2	 -49.2	 1.0	 22.0	 1	 12	 3.707; % PEL
	2459	 13.126	 0.0	 49.2	 -49.2	 1.0	 22.0	 1	 24	 2.252; % COW
	2459	 27.48875	 0.0	 49.2	 -49.2	 1.0	 22.0	 1	 50	 4.9775; % PEL
	2464	 51.358	 2.106	 49.212	 -45.0	 1.0	 96.68	 1	 89	 13.716; % COW
	2465	 200.05175	 0.0	 193.0	 -193.0	 1.0	 96.68	 1	 386	 14.1035; % NG
	2466	 115.19925	 0.0	 108.0	 -108.0	 1.0	 96.68	 1	 215	 15.3985; % NG
	2467	 91.586	 0.0	 84.0	 -84.0	 1.0	 96.68	 1	 168	 15.172; % NG
	2468	 62.73425	 0.0	 72.0	 -72.0	 1.0	 96.68	 1	 109	 16.4685; % PEL
	2469	 81.268	 0.0	 71.0	 -71.0	 1.0	 96.68	 1	 141	 21.536; % PEL
	2473	 127.5015	 0.0	 128.4	 -128.4	 1.0	 76.15	 1	 249	 6.003; % COW
	2473	 146.07275	 0.0	 141.0	 -141.0	 1.0	 76.15	 1	 281	 11.1455; % NG
	2473	 142.506	 0.0	 134.0	 -134.0	 1.0	 76.15	 1	 267	 18.012; % PEL
	2473	 160.5855	 0.0	 158.0	 -158.0	 1.0	 76.15	 1	 316	 5.171; % NG
	2477	 116.1765	 0.0	 114.0	 -114.0	 1.0	 38.0	 1	 227	 5.353; % NG
	2481	 103.99675	 0.0	 89.0	 -89.0	 1.0	 170.2	 1	 178	 29.9935; % NG
	2486	 161.25375	 0.0	 141.6	 -141.6	 1.0	 225.2	 1	 272	 50.5075; % NG
	2487	 229.94125	 0.0	 213.0	 -213.0	 1.0	 225.2	 1	 426	 33.8825; % NG
	2488	 184.041	 0.0	 164.0	 -164.0	 1.0	 225.2	 1	 328	 40.082; % COW
	2493	 156.3495	 0.0	 143.0	 -143.0	 1.0	 150.0	 1	 286	 26.699; % NG
	2499	 65.21275	 0.0	 74.4	 -74.4	 1.0	 180.0	 1	 103	 27.4255; % NG
	2500	 16.5665	 0.0	 57.6	 -57.6	 1.0	 9.0	 1	 32	 1.133; % NG
	2506	 134.14625	 0.0	 115.0	 -115.0	 1.0	 161.4	 1	 229	 39.2925; % NG
	2507	 143.60125	 0.0	 131.0	 -131.0	 1.0	 161.4	 1	 261	 26.2025; % NG
	2508	 155.95625	 0.0	 143.0	 -143.0	 1.0	 161.4	 1	 286	 25.9125; % NG
	2509	 200.68475	 0.0	 186.0	 -186.0	 1.0	 161.4	 1	 371	 30.3695; % NG
	2510	 162.06	 0.0	 144.0	 -144.0	 1.0	 161.4	 1	 287	 37.12; % COW
	2515	 204.11025	 0.0	 179.0	 -179.0	 1.0	 206.23	 1	 358	 50.2205; % NG
	2516	 213.71875	 0.0	 191.0	 -191.0	 1.0	 206.23	 1	 382	 45.4375; % NG
	2517	 185.598	 0.0	 162.0	 -162.0	 1.0	 206.23	 1	 323	 48.196; % NG
	2521	 31.60475	 0.0	 29.0	 -29.0	 1.0	 67.6	 1	 58	 5.2095; % PEL
	2526	 104.07425	 0.0	 92.0	 -92.0	 1.0	 155.0	 1	 183	 25.1485; % NG
	2527	 141.55425	 0.0	 137.0	 -137.0	 1.0	 155.0	 1	 273	 10.1085; % NG
	2531	 14.8475	 0.0	 14.0	 -14.0	 1.0	 30.0	 1	 28	 1.695; % NG
	2531	 21.13725	 0.0	 21.0	 -21.0	 1.0	 1.4	 1	 42	 0.2745; % PEL
	2536	 40.184	 0.0	 34.0	 -34.0	 1.0	 59.0	 1	 68	 12.368; % PEL
	2537	 35.67025	 0.0	 33.0	 -33.0	 1.0	 59.0	 1	 65	 6.3405; % PEL
	2538	 62.43575	 0.0	 58.0	 -58.0	 1.0	 59.0	 1	 116	 8.8715; % NG
	2539	 52.62775	 0.0	 46.0	 -46.0	 1.0	 59.0	 1	 92	 13.2555; % PEL
	2544	 154.76875	 0.0	 138.0	 -138.0	 1.0	 174.6	 1	 276	 33.5375; % NG
	2545	 60.56475	 15.682	 81.364	 -50.0	 1.0	 174.6	 1	 100	 21.1295; % NG
	2548	 39.0965	 0.0	 38.0	 -38.0	 1.0	 27.9	 1	 75	 3.193; % NG
	2549	 16.37525	 0.0	 16.0	 -16.0	 1.0	 27.9	 1	 31	 1.7505; % PEL
	2549	 23.2935	 0.0	 20.0	 -20.0	 1.0	 27.9	 1	 40	 6.587; % PEL
	2549	 51.37475	 0.0	 49.0	 -49.0	 1.0	 27.9	 1	 98	 4.7495; % PEL
	2549	 50.88025	 0.0	 48.0	 -48.0	 1.0	 27.9	 1	 96	 5.7605; % NG
	2549	 23.12775	 0.0	 21.0	 -21.0	 1.0	 27.9	 1	 41	 5.2555; % PEL
	2554	 156.18175	 0.0	 145.0	 -145.0	 1.0	 131.9	 1	 289	 23.3635; % NG
	2555	 67.33825	 8.0685	 67.137	 -51.0	 1.0	 131.9	 1	 102	 32.6765; % NG
	2556	 37.9495	 18.0685	 67.137	 -31.0	 1.0	 131.9	 1	 62	 13.899; % NG
	2557	 39.19	 18.0685	 67.137	 -31.0	 1.0	 131.9	 1	 62	 16.38; % NG
	2563	 834.18725	 0.0	 780.0	 -780.0	 1.0	 1215.0	 1	 1397	 271.3745; % NUC
	2564	 569.2135	 0.0	 817.2	 -817.2	 1.0	 1215.0	 1	 1040	 98.427; % COW
	2567	 136.15575	 0.0	 130.0	 -130.0	 1.0	 72.0	 1	 260	 12.3115; % PEL
	2567	 430.624	 0.0	 423.0	 -423.0	 1.0	 72.0	 1	 845	 16.248; % COW
	2567	 107.6485	 0.0	 106.0	 -106.0	 1.0	 72.0	 1	 211	 4.297; % PEL
	2567	 131.2265	 0.0	 126.0	 -126.0	 1.0	 72.0	 1	 252	 10.453; % NG
	2567	 154.7465	 0.0	 147.0	 -147.0	 1.0	 72.0	 1	 294	 15.493; % NG
	2567	 132.63575	 0.0	 128.0	 -128.0	 1.0	 72.0	 1	 255	 10.2715; % PEL
	2573	 269.12325	 0.0	 238.0	 -238.0	 1.0	 278.0	 1	 476	 62.2465; % NG
	2578	 143.98425	 0.0	 135.0	 -135.0	 1.0	 150.0	 1	 270	 17.9685; % NG
	2583	 275.145	 0.0	 235.0	 -235.0	 1.0	 325.2	 1	 469	 81.29; % NG
	2584	 145.10825	 18.2635	 165.527	 -129.0	 1.0	 325.2	 1	 257	 33.2165; % NG
	2588	 106.184	 0.0	 92.0	 -92.0	 1.0	 232.5	 1	 184	 28.368; % NG
	2591	 143.79975	 0.0	 138.0	 -138.0	 1.0	 80.5	 1	 275	 12.5995; % NG
	2594	 99.9855	 0.0	 93.0	 -93.0	 1.0	 79.6	 1	 185	 14.971; % PEL
	2598	 43.6745	 0.0	 42.0	 -42.0	 1.0	 20.25	 1	 84	 3.349; % PEL
	2598	 12.54075	 0.0	 12.0	 -12.0	 1.0	 20.25	 1	 23	 2.0815; % NG
	2604	 179.8315	 0.0	 161.0	 -161.0	 1.0	 200.0	 1	 322	 37.663; % NG
	2611	 231.95675	 0.0	 204.0	 -204.0	 1.0	 391.8	 1	 408	 55.9135; % NG
	2612	 213.73625	 16.213	 199.426	 -167.0	 1.0	 391.8	 1	 333	 94.4725; % NG
	2613	 213.80875	 5.213	 199.426	 -189.0	 1.0	 391.8	 1	 377	 50.6175; % NG
	2617	 4.094	 0.0	 18.0	 -18.0	 1.0	 22.0	 1	 7	 1.188; % PEL
	2617	 15.12175	 0.0	 18.0	 -18.0	 1.0	 22.0	 1	 27	 3.2435; % PEL
	2623	 0.0	 0.0	 307.56	 -167.0	 1.0	 660.0	 0	 333	 113.848; % COW
	2624	 0.0	 0.0	 307.56	 -120.0	 1.0	 660.0	 0	 239	 56.7965; % NG
	2625	 0.0	 0.0	 307.56	 -80.52	 1.0	 660.0	 0	 23	 177.006; % COW
	2630	 147.79675	 0.0	 117.0	 -117.0	 1.0	 288.6	 1	 234	 61.5935; % COW
	2635	 219.68575	 0.0	 197.0	 -197.0	 1.0	 241.0	 1	 393	 46.3715; % COW
	2638	 31.80625	 0.0	 30.0	 -30.0	 1.0	 58.8	 1	 60	 3.6125; % PEL
	2644	 93.25975	 0.0	 88.0	 -88.0	 1.0	 165.63	 1	 175	 11.5195; % NG
	2645	 343.69125	 0.0	 329.0	 -329.0	 1.0	 165.63	 1	 658	 29.3825; % NG
	2646	 117.684	 0.0	 107.0	 -107.0	 1.0	 165.63	 1	 213	 22.368; % NG
	2647	 142.75125	 0.0	 138.0	 -138.0	 1.0	 165.63	 1	 276	 9.5025; % NG
	2651	 100.6045	 0.0	 91.0	 -91.0	 1.0	 158.23	 1	 182	 19.209; % NG
	2652	 255.18525	 0.0	 239.0	 -239.0	 1.0	 158.23	 1	 477	 33.3705; % COW
	2653	 152.14925	 0.0	 146.0	 -146.0	 1.0	 158.23	 1	 292	 12.2985; % NG
	2657	 178.16725	 0.0	 166.0	 -166.0	 1.0	 126.5	 1	 331	 25.3345; % COW
	2662	 145.592	 0.0	 122.0	 -122.0	 1.0	 197.0	 1	 243	 48.184; % NG
	2665	 44.346	 0.0	 38.0	 -38.0	 1.0	 78.2	 1	 75	 13.692; % NG
	2669	 169.5375	 0.0	 148.0	 -148.0	 1.0	 183.77	 1	 296	 43.075; % NG
	2670	 188.5215	 0.0	 171.0	 -171.0	 1.0	 183.77	 1	 341	 36.043; % NG
	2671	 161.804	 0.0	 157.0	 -157.0	 1.0	 183.77	 1	 313	 10.608; % NG
	2677	 374.94475	 0.0	 368.0	 -368.0	 1.0	 186.33	 1	 735	 14.8895; % NG
	2678	 386.07025	 0.0	 364.0	 -364.0	 1.0	 186.33	 1	 728	 44.1405; % NG
	2679	 377.856	 0.0	 361.0	 -361.0	 1.0	 186.33	 1	 721	 34.712; % NG
	2683	 273.491	 0.0	 254.0	 -254.0	 1.0	 283.2	 1	 507	 39.982; % NG
	2688	 347.725	 0.0	 323.0	 -323.0	 1.0	 203.0	 1	 646	 49.45; % COW
	2691	 50.75025	 0.0	 98.4	 -98.4	 1.0	 43.0	 1	 99	 2.5005; % NG
	2692	 33.3705	 0.0	 28.0	 -28.0	 1.0	 43.0	 1	 56	 10.741; % NG
...
];

%% generator cost data
%	2	startup	shutdown	n	c(n-1)	...	c0
mpc.gencost = [
	2	 0.0	 0.0	 3	   0.000000	  17.440000	 -32.940000; % NG
	2	 0.0	 0.0	 3	   0.000000	  12.880000	   0.000000; % NG
	2	 0.0	 0.0	 3	   0.000000	  20.330000	 -35.950000; % NG
	2	 0.0	 0.0	 3	   0.000000	  19.240000	 -31.910000; % NG
	2	 0.0	 0.0	 3	   0.000000	  16.980000	 -29.710000; % NG
	2	 0.0	 0.0	 3	   0.000000	  17.610000	 -30.630000; % NG
	2	 0.0	 0.0	 3	   0.000000	   0.000000	   0.000000; % NG
	2	 0.0	 0.0	 3	   0.000000	   0.000000	   0.000000; % NG
	2	 0.0	 0.0	 3	   0.000000	   0.000000	   0.000000; % PEL
	2	 0.0	 0.0	 3	   0.000000	   0.000000	   0.000000; % PEL
	2	 0.0	 0.0	 3	   0.000000	   0.000000	   0.000000; % PEL
	2	 0.0	 0.0	 3	   0.000000	   0.000000	   0.000000; % PEL
	2	 0.0	 0.0	 3	   0.000000	   0.000000	   0.000000; % PEL
	2	 0.0	 0.0	 3	   0.000000	   0.000000	   0.000000; % PEL
	2	 0.0	 0.0	 3	   0.000000	   0.000000	   0.000000; % PEL
	2	 0.0	 0.0	 3	   0.000000	   0.000000	   0.000000; % PEL
	2	 0.0	 0.0	 3	   0.000000	   0.000000	   0.000000; % PEL
	2	 0.0	 0.0	 3	   0.000000	   0.000000	   0.000000; % PEL
	2	 0.0	 0.0	 3	   0.000000	   0.000000	   0.000000; % PEL
	2	 0.0	 0.0	 3	   0.000000	   0.000000	   0.000000; % PEL
	2	 0.0	 0.0	 3	   0.013130	  17.510000	  -2.170000; % NG
	2	 0.0	 0.0	 3	   0.018080	  19.240000	  -2.636000; % NG
	2	 0.0	 0.0	 3	   0.019070	  21.000000	  -2.543000; % NG
	2	 0.0	 0.0	 3	   0.043180	  53.980000	 -16.290000; % NG
	2	 0.0	 0.0	 3	   0.000000	  17.650000	   0.000000; % COW
	2	 0.0	 0.0	 3	   0.000000	  16.870000	 -47.580000; % COW
	2	 0.0	 0.0	 3	   0.000000	  18.420000	   0.000000; % COW
	2	 0.0	 0.0	 3	   0.016510	  16.250000	   0.000000; % NG
	2	 0.0	 0.0	 3	   0.000000	   0.000000	   0.000000; % NG
	2	 0.0	 0.0	 3	   0.000000	   0.000000	   0.000000; % NG
	2	 0.0	 0.0	 3	   0.017490	  17.640000	  -1.585000; % NG
	2	 0.0	 0.0	 3	   0.010040	  17.360000	  -1.150000; % NG
	2	 0.0	 0.0	 3	   0.015570	  16.680000	  -1.611000; % NG
	2	 0.0	 0.0	 3	   0.068860	  47.080000	 -23.040000; % COW
	2	 0.0	 0.0	 3	   0.040130	  51.070000	 -16.850000; % COW
	2	 0.0	 0.0	 3	   0.000000	  17.520000	 -29.300000; % NG
	2	 0.0	 0.0	 3	   0.000000	  15.580000	 -25.270000; % NG
	2	 0.0	 0.0	 3	   0.000000	  19.290000	 -28.650000; % COW
	2	 0.0	 0.0	 3	   0.000000	  19.900000	   0.000000; % NG
	2	 0.0	 0.0	 3	   0.000000	  15.590000	 -28.500000; % COW
	2	 0.0	 0.0	 3	   0.000000	  17.330000	   0.000000; % NG
	2	 0.0	 0.0	 3	   0.000000	  16.400000	   0.000000; % PEL
	2	 0.0	 0.0	 3	   0.000000	  12.850000	   0.000000; % PEL
	2	 0.0	 0.0	 3	   0.000000	  17.680000	   0.000000; % PEL
	2	 0.0	 0.0	 3	   0.000000	  15.830000	   0.000000; % NG
	2	 0.0	 0.0	 3	   0.000000	  17.200000	   0.000000; % PEL
	2	 0.0	 0.0	 3	   0.000000	  14.580000	   0.000000; % NG
	2	 0.0	 0.0	 3	   0.000000	  12.400000	   0.000000; % NG
	2	 0.0	 0.0	 3	   0.021660	  16.350000	  -1.294000; % NG
	2	 0.0	 0.0	 3	   0.013870	  16.150000	  -1.187000; % COW
	2	 0.0	 0.0	 3	   0.015950	  17.830000	  -1.461000; % NG
	2	 0.0	 0.0	 3	   0.022650	  17.910000	  -2.061000; % COW
	2	 0.0	 0.0	 3	   0.020350	  20.050000	  -2.561000; % NG
	2	 0.0	 0.0	 3	   0.014010	  20.440000	  -2.129000; % NG
	2	 0.0	 0.0	 3	   0.000000	  17.030000	   0.000000; % NG
	2	 0.0	 0.0	 3	   0.000000	  15.900000	   0.000000; % NG
	2	 0.0	 0.0	 3	   0.000000	  16.340000	   0.000000; % NG
	2	 0.0	 0.0	 3	   0.000000	  14.270000	  -4.747000; % NG
	2	 0.0	 0.0	 3	   0.000000	   0.000000	   0.000000; % NG
	2	 0.0	 0.0	 3	   0.012830	  15.400000	   0.000000; % COW
	2	 0.0	 0.0	 3	   0.015990	  18.460000	   0.000000; % NG
	2	 0.0	 0.0	 3	   0.013190	  15.440000	   0.000000; % NG
	2	 0.0	 0.0	 3	   0.020740	  20.670000	  -1.665000; % NG
	2	 0.0	 0.0	 3	   0.021410	  18.130000	  -1.166000; % NG
	2	 0.0	 0.0	 3	   0.069530	  30.500000	 -16.060000; % COW
	2	 0.0	 0.0	 3	   0.000000	   0.000000	   0.000000; % PEL
	2	 0.0	 0.0	 3	   0.000000	   0.000000	   0.000000; % PEL
	2	 0.0	 0.0	 3	   0.000000	   0.000000	   0.000000; % NG
	2	 0.0	 0.0	 3	   0.000000	   0.000000	   0.000000; % NG
	2	 0.0	 0.0	 3	   0.000000	   0.000000	   0.000000; % PEL
	2	 0.0	 0.0	 3	   0.000000	   0.000000	   0.000000; % NG
	2	 0.0	 0.0	 3	   0.000000	   0.000000	   0.000000; % PEL
	2	 0.0	 0.0	 3	   0.000000	  16.640000	  -1.592000; % NG
	2	 0.0	 0.0	 3	   0.000000	  12.830000	  -1.557000; % NG
	2	 0.0	 0.0	 3	   0.000000	  14.350000	  -1.863000; % NG
	2	 0.0	 0.0	 3	   0.000000	  15.060000	  -2.747000; % NG
	2	 0.0	 0.0	 3	   0.000000	  15.080000	  -1.709000; % NG
	2	 0.0	 0.0	 3	   0.000000	  17.090000	  -1.949000; % PEL
	2	 0.0	 0.0	 3	   0.000000	  15.730000	   0.000000; % NG
	2	 0.0	 0.0	 3	   0.000000	  15.420000	  -2.594000; % PEL
	2	 0.0	 0.0	 3	   0.000000	  14.740000	   0.000000; % NG
	2	 0.0	 0.0	 3	   0.000000	  14.770000	  -1.915000; % NG
	2	 0.0	 0.0	 3	   0.000000	  15.750000	  -2.810000; % NG
	2	 0.0	 0.0	 3	   0.000000	  17.800000	  -2.441000; % NG
	2	 0.0	 0.0	 3	   0.000000	  17.170000	 -12.920000; % NG
	2	 0.0	 0.0	 3	   0.000000	  14.370000	  -1.300000; % NG
	2	 0.0	 0.0	 3	   0.011430	  18.140000	  -1.747000; % NG
	2	 0.0	 0.0	 3	   0.019220	  19.880000	  -2.606000; % NG
	2	 0.0	 0.0	 3	   0.016310	  19.470000	  -2.139000; % NG
	2	 0.0	 0.0	 3	   0.000000	  16.260000	 -22.010000; % NG
	2	 0.0	 0.0	 3	   0.000000	  17.180000	 -28.280000; % NG
	2	 0.0	 0.0	 3	   0.000000	  18.920000	 -32.330000; % NG
	2	 0.0	 0.0	 3	   0.000000	  17.980000	   0.000000; % NG
	2	 0.0	 0.0	 3	   0.000000	  16.330000	 -28.050000; % NG
	2	 0.0	 0.0	 3	   0.011390	  13.820000	   0.000000; % NG
	2	 0.0	 0.0	 3	   0.016130	  19.250000	  -1.327000; % NG
	2	 0.0	 0.0	 3	   0.011690	  16.620000	  -1.205000; % NG
	2	 0.0	 0.0	 3	   0.013690	  18.980000	  -2.581000; % NG
	2	 0.0	 0.0	 3	   0.013210	  17.970000	  -2.287000; % NG
	2	 0.0	 0.0	 3	   0.000000	  16.280000	   0.000000; % COW
	2	 0.0	 0.0	 3	   0.000000	  20.420000	   0.000000; % NG
	2	 0.0	 0.0	 3	   0.000000	  16.780000	  -1.067000; % PEL
	2	 0.0	 0.0	 3	   0.000000	  14.800000	  -1.147000; % COW
	2	 0.0	 0.0	 3	   0.000000	  13.720000	   0.000000; % PEL
	2	 0.0	 0.0	 3	   0.000000	  16.400000	 -38.800000; % COW
	2	 0.0	 0.0	 3	   0.000000	  19.280000	 -38.970000; % NG
	2	 0.0	 0.0	 3	   0.000000	  18.520000	 -42.210000; % NG
	2	 0.0	 0.0	 3	   0.000000	  18.980000	 -44.480000; % NG
	2	 0.0	 0.0	 3	   0.000000	  20.250000	 -46.150000; % PEL
	2	 0.0	 0.0	 3	   0.000000	  19.130000	   0.000000; % PEL
	2	 0.0	 0.0	 3	   0.000000	  16.770000	 -21.350000; % COW
	2	 0.0	 0.0	 3	   0.000000	  20.010000	 -24.790000; % NG
	2	 0.0	 0.0	 3	   0.000000	  18.290000	   0.000000; % PEL
	2	 0.0	 0.0	 3	   0.000000	  15.420000	 -17.620000; % NG
	2	 0.0	 0.0	 3	   0.000000	  17.110000	  -5.602000; % NG
	2	 0.0	 0.0	 3	   0.000000	   0.000000	   0.000000; % NG
	2	 0.0	 0.0	 3	   0.013520	  20.890000	  -1.865000; % NG
	2	 0.0	 0.0	 3	   0.019390	  17.930000	  -2.177000; % NG
	2	 0.0	 0.0	 3	   0.017490	  19.820000	  -2.142000; % COW
	2	 0.0	 0.0	 3	   0.000000	   0.000000	   0.000000; % NG
	2	 0.0	 0.0	 3	   0.000000	   0.000000	   0.000000; % NG
	2	 0.0	 0.0	 3	   0.000000	   0.000000	   0.000000; % NG
	2	 0.0	 0.0	 3	   0.009681	  16.490000	  -1.003000; % NG
	2	 0.0	 0.0	 3	   0.016860	  21.560000	  -1.412000; % NG
	2	 0.0	 0.0	 3	   0.019280	  20.310000	  -1.604000; % NG
	2	 0.0	 0.0	 3	   0.013700	  18.470000	  -1.238000; % NG
	2	 0.0	 0.0	 3	   0.011950	  20.250000	  -1.199000; % COW
	2	 0.0	 0.0	 3	   0.014340	  20.570000	  -1.900000; % NG
	2	 0.0	 0.0	 3	   0.015750	  22.800000	  -1.969000; % NG
	2	 0.0	 0.0	 3	   0.011050	  17.910000	  -1.429000; % NG
	2	 0.0	 0.0	 3	   0.000000	   0.000000	   0.000000; % PEL
	2	 0.0	 0.0	 3	   0.014750	  17.590000	  -1.185000; % NG
	2	 0.0	 0.0	 3	   0.020070	  19.620000	  -1.071000; % NG
	2	 0.0	 0.0	 3	   0.000000	   0.000000	   0.000000; % NG
	2	 0.0	 0.0	 3	   0.000000	   0.000000	   0.000000; % PEL
	2	 0.0	 0.0	 3	   0.000000	  16.650000	   0.000000; % PEL
	2	 0.0	 0.0	 3	   0.000000	  18.300000	 -11.260000; % PEL
	2	 0.0	 0.0	 3	   0.000000	  15.960000	  -9.874000; % NG
	2	 0.0	 0.0	 3	   0.000000	  17.490000	   0.000000; % PEL
	2	 0.0	 0.0	 3	   0.030640	  32.130000	  -3.031000; % NG
	2	 0.0	 0.0	 3	   0.046090	  32.280000	  -3.604000; % NG
	2	 0.0	 0.0	 3	   0.000000	  12.990000	  -1.996000; % NG
	2	 0.0	 0.0	 3	   0.000000	  16.370000	  -2.346000; % PEL
	2	 0.0	 0.0	 3	   0.000000	  17.010000	   0.000000; % PEL
	2	 0.0	 0.0	 3	   0.000000	  14.440000	  -2.548000; % PEL
	2	 0.0	 0.0	 3	   0.000000	  18.130000	   0.000000; % NG
	2	 0.0	 0.0	 3	   0.000000	  16.820000	   0.000000; % PEL
	2	 0.0	 0.0	 3	   0.014060	  16.760000	  -1.007000; % NG
	2	 0.0	 0.0	 3	   0.000000	  17.230000	   0.000000; % NG
	2	 0.0	 0.0	 3	   0.015030	  17.060000	   0.000000; % NG
	2	 0.0	 0.0	 3	   0.017350	  17.850000	  -1.040000; % NG
	2	 0.0	 0.0	 3	   0.001101	   9.512000	   0.000000; % NUC
	2	 0.0	 0.0	 3	   0.001697	   8.369000	   0.000000; % COW
	2	 0.0	 0.0	 3	   0.000000	  17.040000	 -17.280000; % PEL
	2	 0.0	 0.0	 3	   0.000000	  14.970000	   0.000000; % COW
	2	 0.0	 0.0	 3	   0.000000	  16.940000	 -16.240000; % PEL
	2	 0.0	 0.0	 3	   0.000000	  16.960000	 -19.710000; % NG
	2	 0.0	 0.0	 3	   0.000000	  18.780000	   0.000000; % NG
	2	 0.0	 0.0	 3	   0.000000	  16.370000	 -20.760000; % PEL
	2	 0.0	 0.0	 3	   0.000000	   0.000000	   0.000000; % NG
	2	 0.0	 0.0	 3	   0.000000	   0.000000	   0.000000; % NG
	2	 0.0	 0.0	 3	   0.009473	  18.910000	  -2.008000; % NG
	2	 0.0	 0.0	 3	   0.019220	  19.040000	  -2.590000; % NG
	2	 0.0	 0.0	 3	   0.000000	   0.000000	   0.000000; % NG
	2	 0.0	 0.0	 3	   0.000000	   0.000000	   0.000000; % NG
	2	 0.0	 0.0	 3	   0.000000	   0.000000	   0.000000; % PEL
	2	 0.0	 0.0	 3	   0.000000	  17.580000	  -1.317000; % PEL
	2	 0.0	 0.0	 3	   0.000000	  18.380000	  -1.549000; % NG
	2	 0.0	 0.0	 3	   0.000000	   0.000000	   0.000000; % NG
	2	 0.0	 0.0	 3	   0.016060	  17.540000	  -3.054000; % NG
	2	 0.0	 0.0	 3	   0.013510	  24.010000	  -3.379000; % NG
	2	 0.0	 0.0	 3	   0.019130	  18.860000	  -3.463000; % NG
	2	 0.0	 0.0	 3	   0.000000	   0.000000	   0.000000; % PEL
	2	 0.0	 0.0	 3	   0.000000	   0.000000	   0.000000; % PEL
	2	 0.0	 0.0	 3	   0.057540	  50.070000	 -20.310000; % COW
	2	 0.0	 0.0	 3	   0.072990	  38.150000	 -18.500000; % NG
	2	 0.0	 0.0	 3	   0.066880	  45.380000	 -20.760000; % COW
	2	 0.0	 0.0	 3	   0.000000	   0.000000	   0.000000; % COW
	2	 0.0	 0.0	 3	   0.000000	   0.000000	   0.000000; % COW
	2	 0.0	 0.0	 3	   0.000000	   0.000000	   0.000000; % PEL
	2	 0.0	 0.0	 3	   0.000000	   0.000000	   0.000000; % NG
	2	 0.0	 0.0	 3	   0.000000	   0.000000	   0.000000; % NG
	2	 0.0	 0.0	 3	   0.000000	   0.000000	   0.000000; % NG
	2	 0.0	 0.0	 3	   0.000000	   0.000000	   0.000000; % NG
	2	 0.0	 0.0	 3	   0.014250	  17.000000	  -1.013000; % NG
	2	 0.0	 0.0	 3	   0.010650	  15.640000	   0.000000; % COW
	2	 0.0	 0.0	 3	   0.018500	  16.190000	  -1.079000; % NG
	2	 0.0	 0.0	 3	   0.000000	   0.000000	   0.000000; % COW
	2	 0.0	 0.0	 3	   0.000000	   0.000000	   0.000000; % NG
	2	 0.0	 0.0	 3	   0.000000	   0.000000	   0.000000; % NG
	2	 0.0	 0.0	 3	   0.013340	  21.020000	  -1.540000; % NG
	2	 0.0	 0.0	 3	   0.013790	  17.620000	  -1.454000; % NG
	2	 0.0	 0.0	 3	   0.020510	  17.040000	  -1.241000; % NG
	2	 0.0	 0.0	 3	   0.020060	  18.400000	  -1.395000; % NG
	2	 0.0	 0.0	 3	   0.011620	  20.590000	  -1.368000; % NG
	2	 0.0	 0.0	 3	   0.017260	  18.570000	  -1.793000; % NG
	2	 0.0	 0.0	 3	   0.000000	   0.000000	   0.000000; % NG
	2	 0.0	 0.0	 3	   0.000000	   0.000000	   0.000000; % COW
	2	 0.0	 0.0	 3	   0.000000	  16.310000	  -3.822000; % NG
	2	 0.0	 0.0	 3	   0.000000	  18.550000	   0.000000; % NG
...
];

%% branch data
%	fbus	tbus	r	x	b	rateA	rateB	rateC	ratio	angle	status	angmin	angmax
mpc.branch = [
	1	 10	 0.0087	 0.04508	 0.03012	 161.0	 161.0	 161.0	 0.0	 0.0	 1	 -30.0	 30.0;
	2	 5	 0.04168	 0.15499	 0.06378	 172.6	 172.6	 172.6	 0.0	 0.0	 1	 -30.0	 30.0;
	2	 2971	 0.0113	 0.0609	 0.01935	 179.1	 179.1	 179.1	 0.0	 0.0	 1	 -30.0	 30.0;
	3	 32	 0.02285	 0.1258	 0.02312	 129.8	 129.8	 129.8	 0.0	 0.0	 1	 -30.0	 30.0;
	4	 5	 0.00021	 0.0011	 0.0	 99999.0	 99999.0	 99999.0	 0.0	 0.0	 1	 -30.0	 30.0;
	5	 47	 0.01779	 0.09175	 0.1489	 168.8	 168.8	 168.8	 0.0	 0.0	 1	 -30.0	 30.0;
	6	 7	 0.01146	 0.06161	 0.01521	 118.9	 118.9	 118.9	 0.0	 0.0	 1	 -30.0	 30.0;
	6	 3839	 0.06146	 0.23913	 0.02814	 132.4	 132.4	 132.4	 0.0	 0.0	 1	 -30.0	 30.0;
	7	 3142	 0.01943	 0.08611	 0.03098	 154.4	 154.4	 154.4	 0.0	 0.0	 1	 -30.0	 30.0;
	8	 9	 0.04045	 0.19503	 0.02577	 143.7	 143.7	 143.7	 0.0	 0.0	 1	 -30.0	 30.0;
	8	 34	 0.03445	 0.15102	 0.02567	 125.9	 125.9	 125.9	 0.0	 0.0	 1	 -30.0	 30.0;
	8	 2798	 0.03757	 0.171	 0.015	 165.0	 165.0	 165.0	 0.0	 0.0	 1	 -30.0	 30.0;
	10	 11	 0.03459	 0.13093	 0.02825	 179.5	 179.5	 179.5	 0.0	 0.0	 1	 -30.0	 30.0;
	12	 14	 0.00024	 0.00103	 0.0	 99999.0	 99999.0	 99999.0	 0.0	 0.0	 1	 -30.0	 30.0;
	12	 15	 0.00028	 0.00118	 0.0	 99999.0	 99999.0	 99999.0	 0.0	 0.0	 1	 -30.0	 30.0;
	13	 11	 0.0115	 0.05155	 0.00995	 186.6	 186.6	 186.6	 0.0	 0.0	 1	 -30.0	 30.0;
	13	 25	 0.03053	 0.12823	 0.03996	 170.2	 170.2	 170.2	 0.0	 0.0	 1	 -30.0	 30.0;
	15	 2405	 0.00382	 0.03136	 0.07527	 564.4	 564.4	 564.4	 0.0	 0.0	 1	 -30.0	 30.0;
	15	 3118	 0.00577	 0.05823	 0.28363	 602.8	 602.8	 602.8	 0.0	 0.0	 1	 -30.0	 30.0;
	16	 18	 0.00029	 0.00105	 0.0	 99999.0	 99999.0	 99999.0	 0.0	 0.0	 1	 -30.0	 30.0;
	16	 19	 0.00021	 0.00106	 0.0	 99999.0	 99999.0	 99999.0	 0.0	 0.0	 1	 -30.0	 30.0;
	17	 70	 0.02482	 0.12658	 0.04798	 148.2	 148.2	 148.2	 0.0	 0.0	 1	 -30.0	 30.0;
	19	 3259	 0.01233	 0.10016	 0.25445	 532.2	 532.2	 532.2	 0.0	 0.0	 1	 -30.0	 30.0;
	20	 22	 0.00021	 0.00114	 0.0	 99999.0	 99999.0	 99999.0	 0.0	 0.0	 1	 -30.0	 30.0;
	20	 23	 0.00028	 0.00106	 0.0	 99999.0	 99999.0	 99999.0	 0.0	 0.0	 1	 -30.0	 30.0;
	21	 9	 0.0449	 0.16501	 0.01666	 108.5	 108.5	 108.5	 0.0	 0.0	 1	 -30.0	 30.0;
	22	 3615	 0.00793	 0.06747	 0.23868	 597.9	 597.9	 597.9	 0.0	 0.0	 1	 -30.0	 30.0;
	24	 32	 0.01064	 0.03316	 0.00869	 147.4	 147.4	 147.4	 0.0	 0.0	 1	 -30.0	 30.0;
	25	 24	 0.00921	 0.03545	 0.00947	 146.1	 146.1	 146.1	 0.0	 0.0	 1	 -30.0	 30.0;
	25	 43	 0.00594	 0.0302	 0.03786	 175.1	 175.1	 175.1	 0.0	 0.0	 1	 -30.0	 30.0;
	26	 2572	 0.0208	 0.09668	 0.02411	 135.6	 135.6	 135.6	 0.0	 0.0	 1	 -30.0	 30.0;
	26	 3467	 0.05134	 0.25172	 0.03633	 160.0	 160.0	 160.0	 0.0	 0.0	 1	 -30.0	 30.0;
	27	 30	 0.00029	 0.00101	 0.0	 99999.0	 99999.0	 99999.0	 0.0	 0.0	 1	 -30.0	 30.0;
	27	 2585	 0.00049	 0.00859	 1.20744	 2730.0	 2730.0	 2730.0	 0.0	 0.0	 1	 -30.0	 30.0;
	27	 3124	 0.001	 0.01944	 2.12114	 2885.3	 2885.3	 2885.3	 0.0	 0.0	 1	 -30.0	 30.0;
	28	 31	 0.0003	 0.00103	 0.0	 99999.0	 99999.0	 99999.0	 0.0	 0.0	 1	 -30.0	 30.0;
	29	 3557	 0.00452	 0.02384	 0.01438	 170.8	 170.8	 170.8	 0.0	 0.0	 1	 -30.0	 30.0;
	31	 65	 0.00329	 0.03121	 0.15293	 513.4	 513.4	 513.4	 0.0	 0.0	 1	 -30.0	 30.0;
	31	 2574	 0.00652	 0.0629	 0.18163	 513.0	 513.0	 513.0	 0.0	 0.0	 1	 -30.0	 30.0;
	31	 3567	 0.00127	 0.01143	 0.03245	 651.5	 651.5	 651.5	 0.0	 0.0	 1	 -30.0	 30.0;
	31	 3567	 0.00127	 0.01143	 0.03245	 651.5	 651.5	 651.5	 0.0	 0.0	 1	 -30.0	 30.0;
	32	 33	 0.00021	 0.00116	 0.0	 99999.0	 99999.0	 99999.0	 0.0	 0.0	 1	 -30.0	 30.0;
	32	 2282	 0.00716	 0.03527	 0.01736	 178.4	 178.4	 178.4	 0.0	 0.0	 1	 -30.0	 30.0;
	34	 56	 0.03264	 0.16102	 0.02997	 134.9	 134.9	 134.9	 0.0	 0.0	 1	 -30.0	 30.0;
	35	 36	 0.00024	 0.00114	 0.0	 99999.0	 99999.0	 99999.0	 0.0	 0.0	 1	 -30.0	 30.0;
	35	 62	 0.01883	 0.10742	 0.02725	 115.3	 115.3	 115.3	 0.0	 0.0	 1	 -30.0	 30.0;
	37	 39	 0.00025	 0.00118	 0.0	 99999.0	 99999.0	 99999.0	 0.0	 0.0	 1	 -30.0	 30.0;
	37	 2975	 0.00926	 0.08957	 0.19243	 584.8	 584.8	 584.8	 0.0	 0.0	 1	 -30.0	 30.0;
	38	 35	 0.01179	 0.04912	 0.01005	 139.0	 139.0	 139.0	 0.0	 0.0	 1	 -30.0	 30.0;
	40	 54	 0.00717	 0.03214	 0.01168	 183.9	 183.9	 183.9	 0.0	 0.0	 1	 -30.0	 30.0;
	41	 24	 0.00554	 0.0269	 0.01549	 152.7	 152.7	 152.7	 0.0	 0.0	 1	 -30.0	 30.0;
	42	 40	 0.00522	 0.01499	 0.00686	 198.7	 198.7	 198.7	 0.0	 0.0	 1	 -30.0	 30.0;
	42	 2282	 0.01068	 0.05861	 0.01552	 200.1	 200.1	 200.1	 0.0	 0.0	 1	 -30.0	 30.0;
	43	 41	 0.00246	 0.01272	 0.00586	 168.0	 168.0	 168.0	 0.0	 0.0	 1	 -30.0	 30.0;
	43	 3557	 0.00614	 0.03023	 0.00712	 164.6	 164.6	 164.6	 0.0	 0.0	 1	 -30.0	 30.0;
	44	 29	 0.00738	 0.02468	 0.00717	 123.9	 123.9	 123.9	 0.0	 0.0	 1	 -30.0	 30.0;
	44	 45	 0.0055	 0.0265	 0.0033	 145.5	 145.5	 145.5	 0.0	 0.0	 1	 -30.0	 30.0;
	45	 2282	 0.0079	 0.04148	 0.00396	 162.4	 162.4	 162.4	 0.0	 0.0	 1	 -30.0	 30.0;
	46	 38	 0.02563	 0.14224	 0.01306	 169.3	 169.3	 169.3	 0.0	 0.0	 1	 -30.0	 30.0;
	48	 47	 0.00865	 0.03468	 0.02152	 166.3	 166.3	 166.3	 0.0	 0.0	 1	 -30.0	 30.0;
	48	 71	 0.03201	 0.12189	 0.05261	 176.6	 176.6	 176.6	 0.0	 0.0	 1	 -30.0	 30.0;
	49	 50	 0.00022	 0.00108	 0.0	 99999.0	 99999.0	 99999.0	 0.0	 0.0	 1	 -30.0	 30.0;
	50	 86	 0.0328	 0.16516	 0.09333	 116.2	 116.2	 116.2	 0.0	 0.0	 1	 -30.0	 30.0;
	51	 59	 0.01464	 0.04673	 0.00744	 114.8	 114.8	 114.8	 0.0	 0.0	 1	 -30.0	 30.0;
	52	 53	 0.00021	 0.00103	 0.0	 99999.0	 99999.0	 99999.0	 0.0	 0.0	 1	 -30.0	 30.0;
	53	 54	 0.00707	 0.03381	 0.01158	 147.3	 147.3	 147.3	 0.0	 0.0	 1	 -30.0	 30.0;
	53	 59	 0.00623	 0.0242	 0.00374	 121.3	 121.3	 121.3	 0.0	 0.0	 1	 -30.0	 30.0;
	54	 51	 0.01384	 0.04606	 0.00524	 145.7	 145.7	 145.7	 0.0	 0.0	 1	 -30.0	 30.0;
	54	 55	 0.00027	 0.00106	 0.0	 99999.0	 99999.0	 99999.0	 0.0	 0.0	 1	 -30.0	 30.0;
	56	 46	 0.04103	 0.16139	 0.02102	 159.3	 159.3	 159.3	 0.0	 0.0	 1	 -30.0	 30.0;
	56	 57	 0.00022	 0.00118	 0.0	 99999.0	 99999.0	 99999.0	 0.0	 0.0	 1	 -30.0	 30.0;
	56	 96	 0.01994	 0.09722	 0.00985	 136.4	 136.4	 136.4	 0.0	 0.0	 1	 -30.0	 30.0;
	58	 64	 0.015	 0.07401	 0.00725	 134.0	 134.0	 134.0	 0.0	 0.0	 1	 -30.0	 30.0;
	59	 58	 0.00557	 0.02601	 0.00571	 109.3	 109.3	 109.3	 0.0	 0.0	 1	 -30.0	 30.0;
	60	 61	 0.0002	 0.00106	 0.0	 99999.0	 99999.0	 99999.0	 0.0	 0.0	 1	 -30.0	 30.0;
	60	 67	 0.00441	 0.02151	 0.01126	 144.1	 144.1	 144.1	 0.0	 0.0	 1	 -30.0	 30.0;
	60	 77	 0.00675	 0.04224	 0.01573	 169.1	 169.1	 169.1	 0.0	 0.0	 1	 -30.0	 30.0;
	62	 47	 0.0085	 0.05417	 0.06179	 188.6	 188.6	 188.6	 0.0	 0.0	 1	 -30.0	 30.0;
	62	 85	 0.01218	 0.06348	 0.01115	 166.7	 166.7	 166.7	 0.0	 0.0	 1	 -30.0	 30.0;
	63	 65	 0.0003	 0.00111	 0.0	 99999.0	 99999.0	 99999.0	 0.0	 0.0	 1	 -30.0	 30.0;
	63	 66	 0.0003	 0.00116	 0.0	 99999.0	 99999.0	 99999.0	 0.0	 0.0	 1	 -30.0	 30.0;
	64	 53	 0.00517	 0.02427	 0.00753	 154.1	 154.1	 154.1	 0.0	 0.0	 1	 -30.0	 30.0;
	64	 59	 0.00458	 0.0236	 0.00997	 156.3	 156.3	 156.3	 0.0	 0.0	 1	 -30.0	 30.0;
	64	 67	 0.00668	 0.0258	 0.00494	 138.5	 138.5	 138.5	 0.0	 0.0	 1	 -30.0	 30.0;
	68	 69	 0.00026	 0.00104	 0.0	 99999.0	 99999.0	 99999.0	 0.0	 0.0	 1	 -30.0	 30.0;
	68	 3394	 0.00964	 0.03811	 0.00673	 120.4	 120.4	 120.4	 0.0	 0.0	 1	 -30.0	 30.0;
	70	 68	 0.00842	 0.04011	 0.02742	 161.6	 161.6	 161.6	 0.0	 0.0	 1	 -30.0	 30.0;
	70	 2713	 0.01477	 0.0596	 0.01854	 162.4	 162.4	 162.4	 0.0	 0.0	 1	 -30.0	 30.0;
	72	 74	 0.00023	 0.00109	 0.0	 99999.0	 99999.0	 99999.0	 0.0	 0.0	 1	 -30.0	 30.0;
	72	 75	 0.00027	 0.00118	 0.0	 99999.0	 99999.0	 99999.0	 0.0	 0.0	 1	 -30.0	 30.0;
	73	 71	 0.0162	 0.0528	 0.0087	 182.0	 182.0	 182.0	 0.0	 0.0	 1	 -30.0	 30.0;
	75	 3713	 0.00519	 0.04788	 0.20757	 615.4	 615.4	 615.4	 0.0	 0.0	 1	 -30.0	 30.0;
	76	 58	 0.01303	 0.04777	 0.02234	 147.7	 147.7	 147.7	 0.0	 0.0	 1	 -30.0	 30.0;
	76	 77	 0.01118	 0.05743	 0.0095	 160.5	 160.5	 160.5	 0.0	 0.0	 1	 -30.0	 30.0;
	77	 2282	 0.01741	 0.07702	 0.0321	 199.3	 199.3	 199.3	 0.0	 0.0	 1	 -30.0	 30.0;
	78	 68	 0.03304	 0.12753	 0.01506	 148.5	 148.5	 148.5	 0.0	 0.0	 1	 -30.0	 30.0;
	78	 7121	 0.03285	 0.1673	 0.03843	 141.0	 141.0	 141.0	 0.0	 0.0	 1	 -30.0	 30.0;
	79	 81	 0.00029	 0.00113	 0.0	 99999.0	 99999.0	 99999.0	 0.0	 0.0	 1	 -30.0	 30.0;
	79	 82	 0.00029	 0.00119	 0.0	 99999.0	 99999.0	 99999.0	 0.0	 0.0	 1	 -30.0	 30.0;
	80	 89	 0.01161	 0.06284	 0.01127	 117.4	 117.4	 117.4	 0.0	 0.0	 1	 -30.0	 30.0;
	80	 102	 0.01133	 0.06495	 0.01164	 167.0	 167.0	 167.0	 0.0	 0.0	 1	 -30.0	 30.0;
	81	 37	 0.0056	 0.04947	 0.08192	 494.2	 494.2	 494.2	 0.0	 0.0	 1	 -30.0	 30.0;
	81	 92	 0.00258	 0.02243	 0.04721	 531.5	 531.5	 531.5	 0.0	 0.0	 1	 -30.0	 30.0;
	81	 3708	 0.00169	 0.01576	 0.03176	 460.2	 460.2	 460.2	 0.0	 0.0	 1	 -30.0	 30.0;
	83	 84	 0.00028	 0.00111	 0.0	 99999.0	 99999.0	 99999.0	 0.0	 0.0	 1	 -30.0	 30.0;
	83	 85	 0.00021	 0.00111	 0.0	 99999.0	 99999.0	 99999.0	 0.0	 0.0	 1	 -30.0	 30.0;
	85	 80	 0.01323	 0.052	 0.00706	 143.6	 143.6	 143.6	 0.0	 0.0	 1	 -30.0	 30.0;
	85	 114	 0.00671	 0.0313	 0.01561	 139.4	 139.4	 139.4	 0.0	 0.0	 1	 -30.0	 30.0;
	86	 142	 0.05221	 0.26828	 0.04396	 147.4	 147.4	 147.4	 0.0	 0.0	 1	 -30.0	 30.0;
	86	 3214	 0.01641	 0.06346	 0.01157	 169.1	 169.1	 169.1	 0.0	 0.0	 1	 -30.0	 30.0;
	86	 3467	 0.00749	 0.04011	 0.03024	 182.6	 182.6	 182.6	 0.0	 0.0	 1	 -30.0	 30.0;
	87	 88	 0.00024	 0.00107	 0.0	 99999.0	 99999.0	 99999.0	 0.0	 0.0	 1	 -30.0	 30.0;
	89	 87	 0.00473	 0.02379	 0.00664	 155.6	 155.6	 155.6	 0.0	 0.0	 1	 -30.0	 30.0;
	89	 90	 0.00027	 0.00103	 0.0	 99999.0	 99999.0	 99999.0	 0.0	 0.0	 1	 -30.0	 30.0;
	91	 94	 0.00021	 0.00118	 0.0	 99999.0	 99999.0	 99999.0	 0.0	 0.0	 1	 -30.0	 30.0;
	91	 95	 0.00025	 0.00105	 0.0	 99999.0	 99999.0	 99999.0	 0.0	 0.0	 1	 -30.0	 30.0;
	92	 117	 0.00082	 0.008	 0.14871	 418.8	 418.8	 418.8	 0.0	 0.0	 1	 -30.0	 30.0;
	93	 87	 0.00984	 0.03541	 0.00713	 185.4	 185.4	 185.4	 0.0	 0.0	 1	 -30.0	 30.0;
	97	 131	 0.01557	 0.06201	 0.01264	 140.6	 140.6	 140.6	 0.0	 0.0	 1	 -30.0	 30.0;
	98	 139	 0.03132	 0.14759	 0.02588	 145.1	 145.1	 145.1	 0.0	 0.0	 1	 -30.0	 30.0;
	99	 97	 0.00371	 0.02024	 0.03524	 116.7	 116.7	 116.7	 0.0	 0.0	 1	 -30.0	 30.0;
	99	 98	 0.01547	 0.06318	 0.01446	 132.0	 132.0	 132.0	 0.0	 0.0	 1	 -30.0	 30.0;
	99	 100	 0.00022	 0.00107	 0.0	 99999.0	 99999.0	 99999.0	 0.0	 0.0	 1	 -30.0	 30.0;
	101	 2549	 0.00519	 0.02831	 0.01511	 138.0	 138.0	 138.0	 0.0	 0.0	 1	 -30.0	 30.0;
	102	 103	 0.00021	 0.00119	 0.0	 99999.0	 99999.0	 99999.0	 0.0	 0.0	 1	 -30.0	 30.0;
	102	 128	 0.0114	 0.0566	 0.02173	 146.4	 146.4	 146.4	 0.0	 0.0	 1	 -30.0	 30.0;
	102	 2549	 0.00315	 0.01471	 0.06134	 121.7	 121.7	 121.7	 0.0	 0.0	 1	 -30.0	 30.0;
	104	 108	 0.00671	 0.02956	 0.02076	 138.2	 138.2	 138.2	 0.0	 0.0	 1	 -30.0	 30.0;
	104	 2322	 0.02195	 0.07919	 0.01246	 178.0	 178.0	 178.0	 0.0	 0.0	 1	 -30.0	 30.0;
	105	 99	 0.00684	 0.03283	 0.02204	 155.3	 155.3	 155.3	 0.0	 0.0	 1	 -30.0	 30.0;
	105	 106	 0.00029	 0.00112	 0.0	 99999.0	 99999.0	 99999.0	 0.0	 0.0	 1	 -30.0	 30.0;
	105	 108	 0.00297	 0.01387	 0.00493	 177.0	 177.0	 177.0	 0.0	 0.0	 1	 -30.0	 30.0;
	105	 111	 0.00769	 0.02818	 0.00392	 154.9	 154.9	 154.9	 0.0	 0.0	 1	 -30.0	 30.0;
	107	 109	 0.00023	 0.00102	 0.0	 99999.0	 99999.0	 99999.0	 0.0	 0.0	 1	 -30.0	 30.0;
	107	 110	 0.00027	 0.00119	 0.0	 99999.0	 99999.0	 99999.0	 0.0	 0.0	 1	 -30.0	 30.0;
	108	 2654	 0.018	 0.07054	 0.01077	 168.3	 168.3	 168.3	 0.0	 0.0	 1	 -30.0	 30.0;
	110	 2325	 0.00335	 0.03297	 0.07024	 530.7	 530.7	 530.7	 0.0	 0.0	 1	 -30.0	 30.0;
	111	 108	 0.00218	 0.01069	 0.00394	 145.3	 145.3	 145.3	 0.0	 0.0	 1	 -30.0	 30.0;
	111	 112	 0.00024	 0.00106	 0.0	 99999.0	 99999.0	 99999.0	 0.0	 0.0	 1	 -30.0	 30.0;
	113	 111	 0.00613	 0.03282	 0.01025	 167.0	 167.0	 167.0	 0.0	 0.0	 1	 -30.0	 30.0;
	113	 2654	 0.00616	 0.0224	 0.01354	 208.1	 208.1	 208.1	 0.0	 0.0	 1	 -30.0	 30.0;
	113	 2654	 0.00616	 0.0224	 0.01354	 208.1	 208.1	 208.1	 0.0	 0.0	 1	 -30.0	 30.0;
	114	 3707	 0.00252	 0.0103	 0.00212	 182.8	 182.8	 182.8	 0.0	 0.0	 1	 -30.0	 30.0;
	115	 117	 0.00025	 0.00106	 0.0	 99999.0	 99999.0	 99999.0	 0.0	 0.0	 1	 -30.0	 30.0;
	115	 118	 0.00023	 0.00107	 0.0	 99999.0	 99999.0	 99999.0	 0.0	 0.0	 1	 -30.0	 30.0;
	116	 2600	 0.00878	 0.04711	 0.00903	 155.6	 155.6	 155.6	 0.0	 0.0	 1	 -30.0	 30.0;
	117	 3820	 0.00147	 0.01211	 0.04853	 484.0	 484.0	 484.0	 0.0	 0.0	 1	 -30.0	 30.0;
	119	 89	 0.00606	 0.02341	 0.00677	 132.0	 132.0	 132.0	 0.0	 0.0	 1	 -30.0	 30.0;
	119	 120	 0.01192	 0.04377	 0.00859	 156.0	 156.0	 156.0	 0.0	 0.0	 1	 -30.0	 30.0;
	120	 121	 0.00022	 0.00119	 0.0	 99999.0	 99999.0	 99999.0	 0.0	 0.0	 1	 -30.0	 30.0;
	122	 67	 0.02141	 0.07579	 0.01161	 134.6	 134.6	 134.6	 0.0	 0.0	 1	 -30.0	 30.0;
	122	 3115	 0.02118	 0.09526	 0.02574	 114.1	 114.1	 114.1	 0.0	 0.0	 1	 -30.0	 30.0;
	123	 120	 0.02069	 0.09672	 0.01583	 171.4	 171.4	 171.4	 0.0	 0.0	 1	 -30.0	 30.0;
	123	 2854	 0.01729	 0.0893	 0.01825	 176.5	 176.5	 176.5	 0.0	 0.0	 1	 -30.0	 30.0;
	124	 140	 0.00896	 0.03798	 0.01782	 159.6	 159.6	 159.6	 0.0	 0.0	 1	 -30.0	 30.0;
	125	 113	 0.00639	 0.02609	 0.0044	 141.5	 141.5	 141.5	 0.0	 0.0	 1	 -30.0	 30.0;
	125	 2654	 0.01447	 0.06663	 0.01138	 163.4	 163.4	 163.4	 0.0	 0.0	 1	 -30.0	 30.0;
	126	 101	 0.01231	 0.05904	 0.00577	 119.8	 119.8	 119.8	 0.0	 0.0	 1	 -30.0	 30.0;
	127	 128	 0.0002	 0.00107	 0.0	 99999.0	 99999.0	 99999.0	 0.0	 0.0	 1	 -30.0	 30.0;
	128	 126	 0.00776	 0.03456	 0.008	 156.4	 156.4	 156.4	 0.0	 0.0	 1	 -30.0	 30.0;
	130	 132	 0.00021	 0.00113	 0.0	 99999.0	 99999.0	 99999.0	 0.0	 0.0	 1	 -30.0	 30.0;
	131	 113	 0.01007	 0.04167	 0.00512	 168.4	 168.4	 168.4	 0.0	 0.0	 1	 -30.0	 30.0;
	131	 124	 0.00255	 0.01691	 0.00464	 114.5	 114.5	 114.5	 0.0	 0.0	 1	 -30.0	 30.0;
	132	 110	 0.00181	 0.01653	 0.0297	 442.8	 442.8	 442.8	 0.0	 0.0	 1	 -30.0	 30.0;
	132	 2325	 0.00446	 0.03681	 0.11569	 530.9	 530.9	 530.9	 0.0	 0.0	 1	 -30.0	 30.0;
	133	 135	 0.00026	 0.00105	 0.0	 99999.0	 99999.0	 99999.0	 0.0	 0.0	 1	 -30.0	 30.0;
	134	 136	 0.00546	 0.02959	 0.0156	 168.4	 168.4	 168.4	 0.0	 0.0	 1	 -30.0	 30.0;
	134	 139	 0.04495	 0.20301	 0.01902	 160.9	 160.9	 160.9	 0.0	 0.0	 1	 -30.0	 30.0;
	136	 96	 0.00789	 0.03278	 0.02792	 187.0	 187.0	 187.0	 0.0	 0.0	 1	 -30.0	 30.0;
	137	 138	 0.00029	 0.0012	 0.0	 99999.0	 99999.0	 99999.0	 0.0	 0.0	 1	 -30.0	 30.0;
	138	 136	 0.01303	 0.04355	 0.00744	 139.9	 139.9	 139.9	 0.0	 0.0	 1	 -30.0	 30.0;
	138	 151	 0.02029	 0.12645	 0.02663	 120.3	 120.3	 120.3	 0.0	 0.0	 1	 -30.0	 30.0;
	140	 2654	 0.01362	 0.04387	 0.02183	 180.8	 180.8	 180.8	 0.0	 0.0	 1	 -30.0	 30.0;
	143	 2836	 0.00661	 0.02417	 0.00577	 122.4	 122.4	 122.4	 0.0	 0.0	 1	 -30.0	 30.0;
	143	 2891	 0.00834	 0.03944	 0.01041	 143.9	 143.9	 143.9	 0.0	 0.0	 1	 -30.0	 30.0;
	144	 145	 0.00023	 0.00106	 0.0	 99999.0	 99999.0	 99999.0	 0.0	 0.0	 1	 -30.0	 30.0;
	144	 146	 0.00023	 0.00113	 0.0	 99999.0	 99999.0	 99999.0	 0.0	 0.0	 1	 -30.0	 30.0;
	146	 2345	 0.03921	 0.15613	 0.03093	 213.8	 213.8	 213.8	 0.0	 0.0	 1	 -30.0	 30.0;
	147	 128	 0.01193	 0.0668	 0.01607	 159.3	 159.3	 159.3	 0.0	 0.0	 1	 -30.0	 30.0;
...